2024-01-19T19:07:40,413  INFO Gbl:64 JVM: 17.0.9; JetBrains s.r.o.; mixed mode; 64-bit
2024-01-19T19:07:40,413  INFO Gbl:68 OS: Linux; 6.5.0-14-generic; amd64
2024-01-19T19:07:40,413  INFO Gbl:71 CPU cores: 8
2024-01-19T19:07:40,416  INFO Gbl:72 max. Memory: 1024.0MB (1073741824B)
2024-01-19T19:07:40,418  INFO Gbl:110 MATSim-Build: ra76d70e12c1ca93f702007bdf2cc365001d5f50e (2023-04-12 08:36:22)
2024-01-19T19:07:40,425  INFO ControlerListenerManagerImpl:108 calling notifyStartup on org.matsim.core.controler.ControlerDefaultsModule$1
2024-01-19T19:07:40,428  INFO MemoryObserver:42 used RAM: 192 MB  free: 191 MB  total: 384 MB
2024-01-19T19:07:40,491  INFO ControlerListenerManagerImpl:108 calling notifyStartup on org.matsim.guice.DependencyGraphControlerListener
2024-01-19T19:07:40,604  INFO ControlerListenerManagerImpl:108 calling notifyStartup on org.matsim.counts.CountsControlerListener
2024-01-19T19:07:40,604  INFO ControlerListenerManagerImpl:108 calling notifyStartup on org.matsim.analysis.ModeStatsControlerListener
2024-01-19T19:07:40,604  INFO ControlerListenerManagerImpl:108 calling notifyStartup on org.matsim.analysis.ScoreStatsControlerListener
2024-01-19T19:07:40,605  INFO ControlerListenerManagerImpl:111 all ControlerStartupListeners called.
2024-01-19T19:07:40,606  INFO ControlerUtils:80 config dump before iterations start
2024-01-19T19:07:40,631  INFO ControlerUtils:84 

<?xml version="1.0" encoding="UTF-8"?>
<!DOCTYPE config SYSTEM "http://www.matsim.org/files/dtd/config_v2.dtd">
<config>
	<module name="JDEQSim" >
		<param name="carSize" value="7.5" />
		<param name="endTime" value="undefined" />
		<param name="flowCapacityFactor" value="1.0" />
		<param name="gapTravelSpeed" value="15.0" />
		<param name="minimumInFlowCapacity" value="1800.0" />
		<param name="squeezeTime" value="1800.0" />
		<param name="storageCapacityFactor" value="1.0" />
	</module>
	<module name="ReplanningAnnealer" >
		<!-- Activate the scaling of replanning modules using an annealing approach rather than fixed rates. -->
		<param name="activateAnnealingModule" value="false" />
	</module>
	<module name="TimeAllocationMutator" >
		<!-- Default:true; Defines whether time mutation changes an activity's duration. -->
		<param name="mutationAffectsDuration" value="true" />
		<!-- Default:1800.0; Defines how many seconds a time mutation can maximally shift a time. -->
		<param name="mutationRange" value="1800.0" />
	</module>
	<module name="changeMode" >
		<!-- Defines whether car availability is considered be considered or not. An agent has no car only if it has no license, or never access to a car. Default: true -->
		<param name="ignoreCarAvailability" value="true" />
		<!-- Defines the mode switch behavior. Possible values [fromAllModesToSpecifiedModes, fromSpecifiedModesToSpecifiedModes] Default: fromSpecifiedModesToSpecifiedModes. -->
		<param name="modeSwitchBehavior" value="fromSpecifiedModesToSpecifiedModes" />
		<!-- Defines all the modes available, including chain-based modes, seperated by commas -->
		<param name="modes" value="car,subway" />
	</module>
	<module name="controler" >
		<!-- Defines what should be done with the ITERS directory when a simulation finished successfully -->
		<param name="cleanItersAtEnd" value="keep" />
		<!-- Compression algorithm to use when writing out data to files. Possible values: [none, gzip, lz4, zst] -->
		<param name="compressionType" value="gzip" />
		<!-- Sets whether graphs showing some analyses should automatically be generated during the simulation. The generation of graphs usually takes a small amount of time that does not have any weight in big simulations, but add a significant overhead in smaller runs or in test cases where the graphical output is not even requested. -->
		<param name="createGraphs" value="true" />
		<!-- Defines when the scoring functions for the population are created. Default=IterationStarts. Possible values: [IterationStarts, BeforeMobsim] -->
		<param name="createScoringFunctionType" value="IterationStarts" />
		<!-- true if at the end of a run, plans, network, config etc should be dumped to a file -->
		<param name="dumpDataAtEnd" value="true" />
		<!-- Default=false. If enabled, the router takes travel times needed for turning moves into account. Cannot be used if the (Fast)AStarLandmarks routing or TravelTimeCalculator.separateModes is enabled. -->
		<param name="enableLinkToLinkRouting" value="false" />
		<!-- Default=xml; Specifies the file format for writing events. Currently supported: [xml, pb, json]
		Multiple values can be specified separated by commas (','). -->
		<param name="eventsFileFormat" value="xml" />
		<!-- Default=0. First Iteration of a simulation. -->
		<param name="firstIteration" value="0" />
		<!-- Default=1000. Last Iteration of a simulation. -->
		<param name="lastIteration" value="10" />
		<!-- Defines which mobility simulation will be used. Currently supported: qsim JDEQSim hermes 
		Depending on the chosen mobsim, you'll have to add additional config modules to configure the corresponding mobsim.
		For 'qsim', add a module 'qsim' to the config. -->
		<param name="mobsim" value="qsim" />
		<param name="outputDirectory" value="./../output" />
		<!-- Possible values: failIfDirectoryExists,overwriteExistingFiles,deleteDirectoryIfExists -->
		<param name="overwriteFiles" value="deleteDirectoryIfExists" />
		<!-- The type of routing (least cost path) algorithm used, may have the values: [Dijkstra, AStarLandmarks, FastDijkstra, FastAStarLandmarks, SpeedyALT] -->
		<param name="routingAlgorithmType" value="AStarLandmarks" />
		<!-- An identifier for the current run which is used as prefix for output files and mentioned in output xml files etc. -->
		<param name="runId" value="null" />
		<!-- Comma-separated list of visualizer output file formats. `transims' and `otfvis'. -->
		<param name="snapshotFormat" value="" />
		<!-- iterationNumber % writeEventsInterval == 0 defines in which iterations events are written to a file. `0' disables events writing completely. -->
		<param name="writeEventsInterval" value="50" />
		<!-- iterationNumber % writePlansInterval == 0 defines (hopefully) in which iterations plans are written to a file. `0' disables plans writing completely.  Some plans in early iterations are always written -->
		<param name="writePlansInterval" value="50" />
		<!-- iterationNumber % writeSnapshotsInterval == 0 defines in which iterations snapshots are written to a file. `0' disables snapshots writing completely -->
		<param name="writeSnapshotsInterval" value="1" />
		<!-- iterationNumber % writeEventsInterval == 0 defines in which iterations trips CSV are written to a file. `0' disables trips writing completely. -->
		<param name="writeTripsInterval" value="50" />
	</module>
	<module name="counts" >
		<!-- Transport modes that will be respected for the counts comparison. 'car' is default, which includes also bussed from the pt simulation module. Use this parameter in combination with 'filterModes' = true! -->
		<param name="analyzedModes" value="car" />
		<!-- Specifies over how many iterations the link volumes should be averaged that are used for the counts comparison. Use 1 or 0 to only use the link volumes of a single iteration. This values cannot be larger than the value specified for writeCountsInterval -->
		<param name="averageCountsOverIterations" value="5" />
		<!-- factor by which to re-scale the simulated values.  necessary when simulation runs with something different from 100%.  needs to be adapted manually -->
		<param name="countsScaleFactor" value="1.0" />
		<!-- distance to distanceFilterCenterNode to include counting stations. The unit of distance is the Euclidean distance implied by the coordinate system -->
		<param name="distanceFilter" value="null" />
		<!-- node id for center node of distance filter -->
		<param name="distanceFilterCenterNode" value="null" />
		<!-- If true, link counts from legs performed on modes not included in the 'analyzedModes' parameter are ignored. -->
		<param name="filterModes" value="false" />
		<!-- The Coordinates Reference System in which the coordinates are expressed in the input file. At import, the coordinates will be converted to the coordinate system defined in "global", and willbe converted back at export. If not specified, no conversion happens. -->
		<param name="inputCRS" value="null" />
		<!-- input file name to counts package -->
		<param name="inputCountsFile" value="null" />
		<!-- possible values: `html', `txt', `all' -->
		<param name="outputformat" value="txt" />
		<!-- Specifies how often the counts comparison should be calculated and written. -->
		<param name="writeCountsInterval" value="10" />
	</module>
	<module name="facilities" >
		<!-- This defines how facilities should be created. Possible values: none fromFile setInScenario onePerActivityLinkInPlansFile onePerActivityLinkInPlansFileExceptWhenCoordinatesAreGiven onePerActivityLocationInPlansFile  -->
		<param name="facilitiesSource" value="none" />
		<!-- A prefix to be used for auto-generated IDs. -->
		<param name="idPrefix" value="f_auto_" />
		<!-- The Coordinates Reference System in which the coordinates are expressed in the input file. At import, the coordinates will be converted to the coordinate system defined in "global", and willbe converted back at export. If not specified, no conversion happens. -->
		<param name="inputCRS" value="null" />
		<param name="inputFacilitiesFile" value="null" />
		<param name="inputFacilityAttributesFile" value="null" />
		<param name="insistingOnUsingDeprecatedFacilitiesAttributeFile" value="false" />
	</module>
	<module name="global" >
		<param name="coordinateSystem" value="Atlantis" />
		<param name="defaultDelimiter" value=";" />
		<param name="insistingOnDeprecatedConfigVersion" value="true" />
		<!-- "global" number of threads.  This number is used, e.g., for replanning, but NOT in QSim.  This can typically be set to as many cores as you have available, or possibly even slightly more. -->
		<param name="numberOfThreads" value="2" />
		<param name="randomSeed" value="4711" />
	</module>
	<module name="hermes" >
		<!-- Simulation End Time -->
		<param name="endTime" value="30:00:00" />
		<param name="flowCapacityFactor" value="1.0" />
		<param name="mainMode" value="car" />
		<param name="storageCapacityFactor" value="1.0" />
		<!-- time in seconds.  Time after which the frontmost vehicle on a link is called `stuck' if it does not move. Set to Integer.MAX_VALUE to disable this behavior -->
		<param name="stuckTime" value="10" />
		<!-- treats PT as deterministic. PT vehicles will run with a steady speed. Should be used with separate network layers for PT and other network modes. -->
		<param name="useDeterministicPt" value="false" />
	</module>
	<module name="households" >
		<param name="inputFile" value="null" />
		<param name="inputHouseholdAttributesFile" value="null" />
		<param name="insistingOnUsingDeprecatedHouseholdsAttributeFile" value="false" />
	</module>
	<module name="linkStats" >
		<!-- Specifies over how many iterations the link volumes should be averaged that are used for the link statistics. Use 1 or 0 to only use the link volumes of a single iteration. This values cannot be larger than the value specified for writeLinkStatsInterval -->
		<param name="averageLinkStatsOverIterations" value="5" />
		<!-- Specifies how often the link stats should be calculated and written. Use 0 to disable the generation of link stats. -->
		<param name="writeLinkStatsInterval" value="50" />
	</module>
	<module name="network" >
		<!-- The Coordinates Reference System in which the coordinates are expressed in the input file. At import, the coordinates will be converted to the coordinate system defined in "global", and willbe converted back at export. If not specified, no conversion happens. -->
		<param name="inputCRS" value="null" />
		<param name="inputChangeEventsFile" value="null" />
		<param name="inputNetworkFile" value="network.xml" />
		<param name="laneDefinitionsFile" value="null" />
		<param name="timeVariantNetwork" value="false" />
	</module>
	<module name="parallelEventHandling" >
		<!-- Estimated number of events during mobsim run. An optional optimization hint for the framework. -->
		<param name="estimatedNumberOfEvents" value="null" />
		<!-- Size of the events Queue. Increase for very large scenarios -->
		<param name="eventsQueueSize" value="131072" />
		<!-- Number of threads for parallel events handler. _null_ means the framework decides by itself. 0 is currently not possible. -->
		<param name="numberOfThreads" value="null" />
		<!-- If enabled, each event handler is assigned to its own thread. Note that enabling this feature disabled the numberOfThreads option! This feature is still experimental! -->
		<param name="oneThreadPerHandler" value="false" />
		<!-- If enabled, it is ensured that all events that are created during a time step of the mobility simulation are processed before the next time step is simulated. E.g. neccessary when within-day replanning is used. -->
		<param name="synchronizeOnSimSteps" value="true" />
	</module>
	<module name="planCalcScore" >
		<!-- logit model scale parameter. default: 1.  Has name and default value for historical reasons (see Bryan Raney's phd thesis). -->
		<param name="BrainExpBeta" value="2.0" />
		<param name="PathSizeLogitBeta" value="1.0" />
		<!-- fraction of iterations at which MSA score averaging is started. The matsim theory department suggests to use this together with switching off choice set innovation (where a similar switch exists), but it has not been tested yet. -->
		<param name="fractionOfIterationsToStartScoreMSA" value="null" />
		<!-- new_score = (1-learningRate)*old_score + learningRate * score_from_mobsim.  learning rates close to zero emulate score averaging, but slow down initial convergence -->
		<param name="learningRate" value="1.0" />
		<!-- There used to be a plateau between duration=0 and duration=zeroUtilityDuration. This caused durations to evolve to zero once they were below zeroUtilityDuration, causing problems.  Only use this switch if you need to be backwards compatible with some old results.  (changed nov'13) -->
		<param name="usingOldScoringBelowZeroUtilityDuration" value="false" />
		<!-- write a plans file in each iteration directory which contains what each agent actually did, and the score it received. -->
		<param name="writeExperiencedPlans" value="false" />
		<parameterset type="scoringParameters" >
			<param name="earlyDeparture" value="-0.0" />
			<param name="lateArrival" value="-18.0" />
			<param name="marginalUtilityOfMoney" value="1.0" />
			<param name="performing" value="6.0" />
			<param name="subpopulation" value="null" />
			<param name="utilityOfLineSwitch" value="-1.0" />
			<param name="waiting" value="-0.0" />
			<param name="waitingPt" value="-6.0" />
			<parameterset type="activityParams" >
				<param name="activityType" value="dummy" />
				<param name="closingTime" value="undefined" />
				<param name="earliestEndTime" value="undefined" />
				<param name="latestStartTime" value="undefined" />
				<param name="minimalDuration" value="undefined" />
				<param name="openingTime" value="undefined" />
				<param name="priority" value="1.0" />
				<param name="scoringThisActivityAtAll" value="true" />
				<!-- typical duration of activity.  needs to be defined and non-zero.  in sec. -->
				<param name="typicalDuration" value="02:00:00" />
				<!-- method to compute score at typical duration.  Options: | uniform | relative | Use uniform for backwards compatibility (all activities same score; higher proba to drop long acts). -->
				<param name="typicalDurationScoreComputation" value="relative" />
			</parameterset>
			<parameterset type="activityParams" >
				<param name="activityType" value="car interaction" />
				<param name="closingTime" value="undefined" />
				<param name="earliestEndTime" value="undefined" />
				<param name="latestStartTime" value="undefined" />
				<param name="minimalDuration" value="undefined" />
				<param name="openingTime" value="undefined" />
				<param name="priority" value="1.0" />
				<param name="scoringThisActivityAtAll" value="false" />
				<param name="typicalDuration" value="undefined" />
				<param name="typicalDurationScoreComputation" value="relative" />
			</parameterset>
			<parameterset type="activityParams" >
				<param name="activityType" value="pt interaction" />
				<param name="closingTime" value="undefined" />
				<param name="earliestEndTime" value="undefined" />
				<param name="latestStartTime" value="undefined" />
				<param name="minimalDuration" value="undefined" />
				<param name="openingTime" value="undefined" />
				<param name="priority" value="1.0" />
				<param name="scoringThisActivityAtAll" value="false" />
				<param name="typicalDuration" value="undefined" />
				<param name="typicalDurationScoreComputation" value="relative" />
			</parameterset>
			<parameterset type="activityParams" >
				<param name="activityType" value="bike interaction" />
				<param name="closingTime" value="undefined" />
				<param name="earliestEndTime" value="undefined" />
				<param name="latestStartTime" value="undefined" />
				<param name="minimalDuration" value="undefined" />
				<param name="openingTime" value="undefined" />
				<param name="priority" value="1.0" />
				<param name="scoringThisActivityAtAll" value="false" />
				<param name="typicalDuration" value="undefined" />
				<param name="typicalDurationScoreComputation" value="relative" />
			</parameterset>
			<parameterset type="activityParams" >
				<param name="activityType" value="drt interaction" />
				<param name="closingTime" value="undefined" />
				<param name="earliestEndTime" value="undefined" />
				<param name="latestStartTime" value="undefined" />
				<param name="minimalDuration" value="undefined" />
				<param name="openingTime" value="undefined" />
				<param name="priority" value="1.0" />
				<param name="scoringThisActivityAtAll" value="false" />
				<param name="typicalDuration" value="undefined" />
				<param name="typicalDurationScoreComputation" value="relative" />
			</parameterset>
			<parameterset type="activityParams" >
				<param name="activityType" value="taxi interaction" />
				<param name="closingTime" value="undefined" />
				<param name="earliestEndTime" value="undefined" />
				<param name="latestStartTime" value="undefined" />
				<param name="minimalDuration" value="undefined" />
				<param name="openingTime" value="undefined" />
				<param name="priority" value="1.0" />
				<param name="scoringThisActivityAtAll" value="false" />
				<param name="typicalDuration" value="undefined" />
				<param name="typicalDurationScoreComputation" value="relative" />
			</parameterset>
			<parameterset type="activityParams" >
				<param name="activityType" value="other interaction" />
				<param name="closingTime" value="undefined" />
				<param name="earliestEndTime" value="undefined" />
				<param name="latestStartTime" value="undefined" />
				<param name="minimalDuration" value="undefined" />
				<param name="openingTime" value="undefined" />
				<param name="priority" value="1.0" />
				<param name="scoringThisActivityAtAll" value="false" />
				<param name="typicalDuration" value="undefined" />
				<param name="typicalDurationScoreComputation" value="relative" />
			</parameterset>
			<parameterset type="activityParams" >
				<param name="activityType" value="walk interaction" />
				<param name="closingTime" value="undefined" />
				<param name="earliestEndTime" value="undefined" />
				<param name="latestStartTime" value="undefined" />
				<param name="minimalDuration" value="undefined" />
				<param name="openingTime" value="undefined" />
				<param name="priority" value="1.0" />
				<param name="scoringThisActivityAtAll" value="false" />
				<param name="typicalDuration" value="undefined" />
				<param name="typicalDurationScoreComputation" value="relative" />
			</parameterset>
			<parameterset type="activityParams" >
				<param name="activityType" value="h" />
				<param name="closingTime" value="undefined" />
				<param name="earliestEndTime" value="undefined" />
				<param name="latestStartTime" value="undefined" />
				<param name="minimalDuration" value="undefined" />
				<param name="openingTime" value="undefined" />
				<param name="priority" value="1.0" />
				<param name="scoringThisActivityAtAll" value="true" />
				<param name="typicalDuration" value="12:00:00" />
				<param name="typicalDurationScoreComputation" value="relative" />
			</parameterset>
			<parameterset type="activityParams" >
				<param name="activityType" value="w" />
				<param name="closingTime" value="18:00:00" />
				<param name="earliestEndTime" value="undefined" />
				<param name="latestStartTime" value="09:00:00" />
				<param name="minimalDuration" value="undefined" />
				<param name="openingTime" value="07:00:00" />
				<param name="priority" value="1.0" />
				<param name="scoringThisActivityAtAll" value="true" />
				<param name="typicalDuration" value="08:00:00" />
				<param name="typicalDurationScoreComputation" value="relative" />
			</parameterset>
			<parameterset type="activityParams" >
				<param name="activityType" value="ride interaction" />
				<param name="closingTime" value="undefined" />
				<param name="earliestEndTime" value="undefined" />
				<param name="latestStartTime" value="undefined" />
				<param name="minimalDuration" value="undefined" />
				<param name="openingTime" value="undefined" />
				<param name="priority" value="1.0" />
				<param name="scoringThisActivityAtAll" value="false" />
				<param name="typicalDuration" value="undefined" />
				<param name="typicalDurationScoreComputation" value="relative" />
			</parameterset>
			<parameterset type="modeParams" >
				<!-- [utils] alternative-specific constant.  Normally per trip, but that is probably buggy for multi-leg trips. -->
				<param name="constant" value="0.0" />
				<!-- [unit_of_money/day] Fixed cost of mode, per day. -->
				<param name="dailyMonetaryConstant" value="0.0" />
				<!-- [utils] daily utility constant. default=0 to be backwards compatible -->
				<param name="dailyUtilityConstant" value="0.0" />
				<!-- [utils/m] utility of traveling (e.g. walking or driving) per m, normally negative.  this is on top of the time (dis)utility. -->
				<param name="marginalUtilityOfDistance_util_m" value="0.0" />
				<!-- [utils/hr] additional marginal utility of traveling.  normally negative.  this comes on top of the opportunity cost of time -->
				<param name="marginalUtilityOfTraveling_util_hr" value="-6.0" />
				<param name="mode" value="car" />
				<!-- [unit_of_money/m] conversion of distance into money. Normally negative. -->
				<param name="monetaryDistanceRate" value="0.0" />
			</parameterset>
			<parameterset type="modeParams" >
				<param name="constant" value="0.0" />
				<param name="dailyMonetaryConstant" value="0.0" />
				<param name="dailyUtilityConstant" value="0.0" />
				<param name="marginalUtilityOfDistance_util_m" value="0.0" />
				<param name="marginalUtilityOfTraveling_util_hr" value="-6.0" />
				<param name="mode" value="pt" />
				<param name="monetaryDistanceRate" value="0.0" />
			</parameterset>
			<parameterset type="modeParams" >
				<param name="constant" value="0.0" />
				<param name="dailyMonetaryConstant" value="0.0" />
				<param name="dailyUtilityConstant" value="0.0" />
				<param name="marginalUtilityOfDistance_util_m" value="0.0" />
				<param name="marginalUtilityOfTraveling_util_hr" value="-6.0" />
				<param name="mode" value="walk" />
				<param name="monetaryDistanceRate" value="0.0" />
			</parameterset>
			<parameterset type="modeParams" >
				<param name="constant" value="0.0" />
				<param name="dailyMonetaryConstant" value="0.0" />
				<param name="dailyUtilityConstant" value="0.0" />
				<param name="marginalUtilityOfDistance_util_m" value="0.0" />
				<param name="marginalUtilityOfTraveling_util_hr" value="-6.0" />
				<param name="mode" value="bike" />
				<param name="monetaryDistanceRate" value="0.0" />
			</parameterset>
			<parameterset type="modeParams" >
				<param name="constant" value="0.0" />
				<param name="dailyMonetaryConstant" value="0.0" />
				<param name="dailyUtilityConstant" value="0.0" />
				<param name="marginalUtilityOfDistance_util_m" value="0.0" />
				<param name="marginalUtilityOfTraveling_util_hr" value="-6.0" />
				<param name="mode" value="ride" />
				<param name="monetaryDistanceRate" value="0.0" />
			</parameterset>
			<parameterset type="modeParams" >
				<param name="constant" value="0.0" />
				<param name="dailyMonetaryConstant" value="0.0" />
				<param name="dailyUtilityConstant" value="0.0" />
				<param name="marginalUtilityOfDistance_util_m" value="0.0" />
				<param name="marginalUtilityOfTraveling_util_hr" value="-6.0" />
				<param name="mode" value="other" />
				<param name="monetaryDistanceRate" value="0.0" />
			</parameterset>
		</parameterset>
	</module>
	<module name="plans" >
		<!-- String: minOfDurationAndEndTime tryEndTimeThenDuration endTimeOnly. Anything besides minOfDurationAndEndTime will internally use a different (simpler) version of the TimeAllocationMutator. -->
		<param name="activityDurationInterpretation" value="tryEndTimeThenDuration" />
		<!-- Possible values: reject,useMainModeIdentifier -->
		<param name="handlingOfPlansWithoutRoutingMode" value="reject" />
		<!-- The Coordinates Reference System in which the coordinates are expressed in the input file. At import, the coordinates will be converted to the coordinate system defined in "global", and willbe converted back at export. If not specified, no conversion happens. -->
		<param name="inputCRS" value="null" />
		<param name="inputPersonAttributesFile" value="null" />
		<param name="inputPlansFile" value="plans1.xml" />
		<param name="insistingOnUsingDeprecatedPersonAttributeFile" value="false" />
		<!-- Defines how routes are stored in memory. Currently supported: LinkNetworkRoute, MediumCompressedNetworkRoute, HeavyCompressedNetworkRoute. -->
		<param name="networkRouteType" value="LinkNetworkRoute" />
		<!-- (not tested) will remove plan attributes that are presumably not used, such as activityStartTime. default=false. Use with Caution! -->
		<param name="removingUnnecessaryPlanAttributes" value="false" />
		<!-- Defines how departure times are interpreted in rerouting applications. If set to 'ignoreDelays', the departure time of a trip when routing along a plan will always be the nominal (plan-based) activity end time. If set to 'shiftActivityEndTimes', routing along a plan will accumulate travel times and shift activity end times if necessary -->
		<param name="tripDurationHandling" value="ignoreDelays" />
	</module>
	<module name="planscalcroute" >
		<!-- Defines how access and egress to main mode is simulated. Either of [none, accessEgressModeToLink, walkConstantTimeToLink, accessEgressModeToLinkPlusTimeConstant], Current default=none which means no access or egress trips are simulated. -->
		<param name="accessEgressType" value="none" />
		<!-- Some typical teleportation routing params are set by default, such as for walk and bike.  Setting this switch to "true" will clear them.  Note that this will also clear settings for helper modes such as for non_network_walk -->
		<param name="clearDefaultTeleportedModeParams" value="false" />
		<!-- All the modes for which the router is supposed to generate network routes (like car) -->
		<param name="networkModes" value="car" />
		<!-- strength of the randomness for the utility of money in routing under toll.  Leads to Pareto-optimal route with randomly drawn money-vs-other-attributes tradeoff. Technically the width parameter of a log-normal distribution. 3.0 seems to be a good value.  -->
		<param name="routingRandomness" value="3.0" />
		<parameterset type="teleportedModeParameters" >
			<param name="beelineDistanceFactor" value="1.3" />
			<param name="mode" value="bike" />
			<!-- Free-speed factor for a teleported mode. Travel time = teleportedModeFreespeedFactor * <freespeed car travel time>. Insert a line like this for every such mode. Please do not set teleportedModeFreespeedFactor as well as teleportedModeSpeed for the same mode, but if you do, +teleportedModeFreespeedFactor wins over teleportedModeSpeed. -->
			<param name="teleportedModeFreespeedFactor" value="null" />
			<!-- Speed for a teleported mode. Travel time = (<beeline distance> * beelineDistanceFactor) / teleportedModeSpeed. Insert a line like this for every such mode. -->
			<param name="teleportedModeSpeed" value="4.166666666666667" />
		</parameterset>
		<parameterset type="teleportedModeParameters" >
			<param name="beelineDistanceFactor" value="1.3" />
			<param name="mode" value="walk" />
			<param name="teleportedModeFreespeedFactor" value="null" />
			<param name="teleportedModeSpeed" value="0.8333333333333333" />
		</parameterset>
		<parameterset type="teleportedModeParameters" >
			<param name="beelineDistanceFactor" value="1.3" />
			<param name="mode" value="non_network_walk" />
			<param name="teleportedModeFreespeedFactor" value="null" />
			<param name="teleportedModeSpeed" value="0.8333333333333333" />
		</parameterset>
		<parameterset type="teleportedModeParameters" >
			<param name="beelineDistanceFactor" value="1.3" />
			<param name="mode" value="ride" />
			<param name="teleportedModeFreespeedFactor" value="1.0" />
			<param name="teleportedModeSpeed" value="null" />
		</parameterset>
		<parameterset type="teleportedModeParameters" >
			<param name="beelineDistanceFactor" value="1.3" />
			<param name="mode" value="pt" />
			<param name="teleportedModeFreespeedFactor" value="2.0" />
			<param name="teleportedModeSpeed" value="null" />
		</parameterset>
	</module>
	<module name="ptCounts" >
		<!-- factor by which to re-scale the simulated values.  necessary when simulation runs with something different from 100%.  needs to be adapted manually -->
		<param name="countsScaleFactor" value="1.0" />
		<!-- distance to distanceFilterCenterNode to include counting stations. The unit of distance is the Euclidean distance implied by the coordinate system -->
		<param name="distanceFilter" value="null" />
		<!-- node id for center node of distance filter -->
		<param name="distanceFilterCenterNode" value="null" />
		<!-- input file containing the alighting (getting off) counts for pt -->
		<param name="inputAlightCountsFile" value="null" />
		<!-- input file containing the boarding (getting on) counts for pt -->
		<param name="inputBoardCountsFile" value="null" />
		<!-- input file containing the occupancy counts for pt -->
		<param name="inputOccupancyCountsFile" value="null" />
		<!-- possible values: `html', `txt', `all' -->
		<param name="outputformat" value="null" />
		<!-- every how many iterations (starting with 0) counts comparisons are generated -->
		<param name="ptCountsInterval" value="10" />
	</module>
	<module name="qsim" >
		<param name="endTime" value="00:00:00" />
		<!-- If set to withLinkAttributes snapshots will only be generated for links which include generateSnapshotForLink as attribute key. Default is no filtering. -->
		<param name="filterSnapshots" value="no" />
		<param name="flowCapacityFactor" value="1.0" />
		<!-- decides if waiting vehicles enter the network after or before the already driving vehicles were moved. Default: false -->
		<param name="insertingWaitingVehiclesBeforeDrivingVehicles" value="true" />
		<!-- If link dynamics is set as SeepageQ, set to false if all seep modes should perform seepage. Default is true (better option). -->
		<param name="isRestrictingSeepage" value="true" />
		<!-- If link dynamics is set as SeepageQ, set to true if seep mode do not consumes any space on the link. Default is false. -->
		<param name="isSeepModeStorageFree" value="false" />
		<!-- default: FIFO; options: FIFO PassingQ SeepageQ -->
		<param name="linkDynamics" value="FIFO" />
		<!-- The (initial) width of the links of the network. Use positive floating point values. This is used only for visualisation. -->
		<param name="linkWidth" value="30.0" />
		<!-- [comma-separated list] Defines which modes are congested modes. Technically, these are the modes that the departure handler of the netsimengine handles.  Effective cell size, effective lane width, flow capacity factor, and storage capacity factor need to be set with diligence.  Need to be vehicular modes to make sense. -->
		<param name="mainMode" value="subway,car" />
		<!-- Shortens a link in the visualization, i.e. its start and end point are moved into towards the center. Does not affect traffic flow.  -->
		<param name="nodeOffset" value="0.0" />
		<!-- Number of threads used for the QSim.  Note that this setting is independent from the "global" threads setting.  In contrast to earlier versions, the non-parallel special version is no longer there. -->
		<param name="numberOfThreads" value="1" />
		<!-- Boolean. `true': stuck vehicles are removed, aborting the plan; `false': stuck vehicles are forced into the next link. `false' is probably the better choice. -->
		<param name="removeStuckVehicles" value="false" />
		<!-- If link dynamics is set as SeepageQ, set a seep mode. Default is bike. -->
		<param name="seepMode" value="bike" />
		<!-- Possible values: minOfEndtimeAndMobsimFinished,onlyUseEndtime -->
		<param name="simEndtimeInterpretation" value="null" />
		<!-- Options: maxOfStarttimeAndEarliestActivityEnd onlyUseStarttime  -->
		<param name="simStarttimeInterpretation" value="maxOfStarttimeAndEarliestActivityEnd" />
		<!-- snapshotStyle. One of: equiDist queue withHoles withHolesAndShowHoles kinematicWaves  -->
		<param name="snapshotStyle" value="queue" />
		<param name="snapshotperiod" value="00:00:00" />
		<param name="startTime" value="00:00:00" />
		<param name="storageCapacityFactor" value="1.0" />
		<!-- time in seconds.  Time after which the frontmost vehicle on a link is called `stuck' if it does not move. -->
		<param name="stuckTime" value="10.0" />
		<param name="timeStepSize" value="00:00:01" />
		<!-- options: queue withHoles kinematicWaves  -->
		<param name="trafficDynamics" value="queue" />
		<!-- Set this parameter to true if lanes should be used, false if not. -->
		<param name="useLanes" value="false" />
		<!-- If a route does not reference a vehicle, agents will use the vehicle with the same id as their own. -->
		<param name="usePersonIdForMissingVehicleId" value="true" />
		<!-- If false, the qsim accumulates fractional flows up to one flow unit in every time step.  If true, flows are updated only if an agent wants to enter the link or an agent is added to buffer. Default is true. -->
		<param name="usingFastCapacityUpdate" value="true" />
		<!-- Defines what happens if an agent wants to depart, but the specified vehicle is not available. One of: teleport wait exception  -->
		<param name="vehicleBehavior" value="teleport" />
		<!-- If vehicles should all be the same default vehicle, or come from the vehicles file, or something else.  Possible values:  defaultVehicle modeVehicleTypesFromVehiclesData fromVehiclesData -->
		<param name="vehiclesSource" value="defaultVehicle" />
	</module>
	<module name="strategy" >
		<!-- the external executable will be called with a config file as argument.  This is the pathname to a possible skeleton config, to which additional information will be added.  Can be null. -->
		<param name="ExternalExeConfigTemplate" value="null" />
		<!-- time out value (in seconds) after which matsim will consider the external strategy as failed -->
		<param name="ExternalExeTimeOut" value="3600" />
		<!-- root directory for temporary files generated by the external executable. Provided as a service; I don't think this is used by MATSim. -->
		<param name="ExternalExeTmpFileRootDir" value="null" />
		<!-- fraction of iterations where innovative strategies are switched off.  Something like 0.8 should be good.  E.g. if you run from iteration 400 to iteration 500, innovation is switched off at iteration 480 -->
		<param name="fractionOfIterationsToDisableInnovation" value="Infinity" />
		<!-- maximum number of plans per agent.  ``0'' means ``infinity''.  Currently (2010), ``5'' is a good number -->
		<param name="maxAgentPlanMemorySize" value="0" />
		<!-- strategyName of PlanSelector for plans removal.  Possible defaults: WorstPlanSelector SelectRandom SelectExpBetaForRemoval ChangeExpBetaForRemoval PathSizeLogitSelectorForRemoval . The current default, WorstPlanSelector is not a good choice from a discrete choice theoretical perspective. Alternatives, however, have not been systematically tested. kai, feb'12 -->
		<param name="planSelectorForRemoval" value="WorstPlanSelector" />
		<parameterset type="strategysettings" >
			<!-- iteration after which strategy will be disabled.  most useful for ``innovative'' strategies (new routes, new times, ...). Normally, better use fractionOfIterationsToDisableInnovation -->
			<param name="disableAfterIteration" value="-1" />
			<!-- path to external executable (if applicable) -->
			<param name="executionPath" value="null" />
			<!-- strategyName of strategy.  Possible default names: SelectRandom BestScore KeepLastSelected ChangeExpBeta SelectExpBeta SelectPathSizeLogit      (selectors), ReRouteTimeAllocationMutatorTimeAllocationMutator_ReRouteChangeSingleTripModeChangeTripModeSubtourModeChoice (innovative strategies). -->
			<param name="strategyName" value="BestScore" />
			<!-- subpopulation to which the strategy applies. "null" refers to the default population, that is, the set of persons for which no explicit subpopulation is defined (ie no subpopulation attribute) -->
			<param name="subpopulation" value="null" />
			<!-- weight of a strategy: for each agent, a strategy will be selected with a probability proportional to its weight -->
			<param name="weight" value="0.8" />
		</parameterset>
		<parameterset type="strategysettings" >
			<param name="disableAfterIteration" value="-1" />
			<param name="executionPath" value="null" />
			<param name="strategyName" value="ReRoute" />
			<param name="subpopulation" value="null" />
			<param name="weight" value="0.1" />
		</parameterset>
		<parameterset type="strategysettings" >
			<param name="disableAfterIteration" value="-1" />
			<param name="executionPath" value="null" />
			<param name="strategyName" value="ChangeTripMode" />
			<param name="subpopulation" value="null" />
			<param name="weight" value="0.1" />
		</parameterset>
	</module>
	<module name="subtourModeChoice" >
		<!-- Only for backwards compatibility.  Defines if only trips from modes list should change mode, or all trips.  Options: fromAllModesToSpecifiedModes fromSpecifiedModesToSpecifiedModes betweenAllAndFewerConstraints  -->
		<param name="behavior" value="fromSpecifiedModesToSpecifiedModes" />
		<!-- Defines the chain-based modes, seperated by commas -->
		<param name="chainBasedModes" value="car,bike" />
		<!-- Defines whether car availability must be considered or not. A agent has no car only if it has no license, or never access to a car -->
		<param name="considerCarAvailability" value="false" />
		<!-- If greater than 0, subtours will also consider coordinates to be at the same location when smaller than set distance. -->
		<param name="coordDistance" value="0.0" />
		<!-- Defines all the modes available, including chain-based modes, seperated by commas -->
		<param name="modes" value="car,pt,bike,walk" />
		<!-- Defines the probability of changing a single trip for a unchained mode instead of subtour. -->
		<param name="probaForRandomSingleTripMode" value="0.0" />
	</module>
	<module name="swissRailRaptor" >
		<!-- Sets whether intermodal access and egress modes are selected by least cost (default) or randomly chosen out of the available access / egress modes. -->
		<param name="intermodalAccessEgressModeSelection" value="CalcLeastCostModePerStop" />
		<!-- Possible values: Default,Individual -->
		<param name="scoringParameters" value="Default" />
		<param name="transferPenaltyBaseCost" value="0.0" />
		<param name="transferPenaltyCostPerTravelTimeHour" value="0.0" />
		<param name="transferPenaltyMaxCost" value="Infinity" />
		<param name="transferPenaltyMinCost" value="-Infinity" />
		<!-- time deducted from transfer walk leg during transfers between pt legs in order to avoid missing a vehicle by a few seconds due to delays. -->
		<param name="transferWalkMargin" value="5.0" />
		<!-- If true, SwissRailRaptor tries to detect when agents cannot board a vehicle in the previous iteration because it is already full and tries to find an alternative route instead. -->
		<param name="useCapacityConstraints" value="false" />
		<param name="useIntermodalAccessEgress" value="false" />
		<param name="useModeMappingForPassengers" value="false" />
		<param name="useRangeQuery" value="false" />
	</module>
	<module name="transit" >
		<!-- The Coordinates Reference System in which the coordinates are expressed in the input file. At import, the coordinates will be converted to the coordinate system defined in "global", and willbe converted back at export. If not specified, no conversion happens. -->
		<param name="inputScheduleCRS" value="null" />
		<param name="insistingOnUsingDeprecatedAttributeFiles" value="false" />
		<!-- The type of transit routing algorithm used, may have the values: [DijkstraBased, SwissRailRaptor] -->
		<param name="routingAlgorithmType" value="SwissRailRaptor" />
		<!-- Optional input file containing additional attributes for transit lines, stored as ObjectAttributes. -->
		<param name="transitLinesAttributesFile" value="null" />
		<!-- Comma-separated list of transportation modes that are handled as transit. Defaults to 'pt'. -->
		<param name="transitModes" value="subway" />
		<!-- Input file containing the transit schedule to be simulated. -->
		<param name="transitScheduleFile" value="transitSchedule.xml" />
		<!-- Optional input file containing additional attributes for transit stop facilities, stored as ObjectAttributes. -->
		<param name="transitStopsAttributesFile" value="null" />
		<!-- Set this parameter to true if transit should be simulated, false if not. -->
		<param name="useTransit" value="true" />
		<param name="usingTransitInMobsim" value="true" />
		<!-- Input file containing the vehicles used by the departures in the transit schedule. -->
		<param name="vehiclesFile" value="transitVehiclesMetro.xml" />
	</module>
	<module name="transitRouter" >
		<!-- additional time the router allocates when a line switch happens. Can be interpreted as a 'safety' time that agents need to safely transfer from one line to another -->
		<param name="additionalTransferTime" value="0.0" />
		<!-- Factor with which direct walk generalized cost is multiplied before it is compared to the pt generalized cost.  Set to a very high value to reduce direct walk results. -->
		<param name="directWalkFactor" value="1.0" />
		<!-- step size to increase searchRadius if no stops are found -->
		<param name="extensionRadius" value="200.0" />
		<!-- maximum beeline distance between stops that agents could transfer to by walking -->
		<param name="maxBeelineWalkConnectionDistance" value="100.0" />
		<!-- the radius in which stop locations are searched, given a start or target coordinate -->
		<param name="searchRadius" value="1000.0" />
	</module>
	<module name="travelTimeCalculator" >
		<!-- (only for backwards compatibility; only used if separateModes==false && + filterModes==true)  Transport modes that will be respected by the travel time collector. 'car' is default which includes also buses from the pt simulation module. -->
		<param name="analyzedModes" value="car" />
		<param name="calculateLinkToLinkTravelTimes" value="false" />
		<param name="calculateLinkTravelTimes" value="true" />
		<!-- (only for backwards compatiblity; only used if separateModes==false)  Only modes included in analyzedModes are included. -->
		<param name="filterModes" value="false" />
		<!-- The lenght (in sec) of the time period that is splited into time bins; an additional time bin is created to aggregate all travel times collected after maxTime -->
		<param name="maxTime" value="108000" />
		<!-- (only for backwards compatibility) If false, link travel times are measured and aggregated over all vehicles using the link. -->
		<param name="separateModes" value="true" />
		<!-- How to deal with congested time bins that have no link entry events. `optimistic' assumes free speed (too optimistic); 'experimental_LastMile' is experimental and probably too pessimistic. -->
		<param name="travelTimeAggregator" value="optimistic" />
		<!-- The size of the time bin (in sec) into which the link travel times are aggregated for the router -->
		<param name="travelTimeBinSize" value="900" />
		<!-- possible values: TravelTimeCalculatorArray TravelTimeCalculatorHashMap  -->
		<param name="travelTimeCalculator" value="TravelTimeCalculatorArray" />
		<!-- How to deal with link entry times at different positions during the time bin. Currently supported: average, linearinterpolation -->
		<param name="travelTimeGetter" value="average" />
	</module>
	<module name="vehicles" >
		<param name="vehiclesFile" value="null" />
	</module>
	<module name="vspExperimental" >
		<!-- (do not use except of you have to) There was a problem with pt interaction scoring.  Some people solved it by overwriting the parameters of the pt interaction activity type.  Doing this now throws an Exception.  If you still insist on doing this, set the following to true. -->
		<param name="isAbleToOverwritePtInteractionParams" value="false" />
		<param name="isGeneratingBoardingDeniedEvent" value="false" />
		<!-- if an approximation of the opportunity cost of time is included into the radius calculation for location choice.`true' will be faster, but it is an approximation.  Default is `true'; `false' is available for backwards compatibility. -->
		<param name="isUsingOpportunityCostOfTimeForLocationChoice" value="true" />
		<param name="logitScaleParamForPlansRemoval" value="1.0" />
		<!-- Options: | ignore | info | warn | abort | .  When violating VSP defaults, this results in nothing, logfile infos, logfile warnings, or aborts.  Members of VSP should use `abort' or talk to kai. -->
		<param name="vspDefaultsCheckingLevel" value="ignore" />
		<!-- if true then writes output_events in output directory.  default is `false'. Will only work when lastIteration is multiple of events writing interval -->
		<param name="writingOutputEvents" value="true" />
	</module>

</config>

2024-01-19T19:07:40,635  INFO ControlerUtils:85 Complete config dump done.
2024-01-19T19:07:40,635  INFO ControlerUtils:86 Checking consistency of config...
2024-01-19T19:07:40,635  INFO VspConfigConsistencyCheckerImpl:64 NOT running vsp config consistency check because vsp defaults checking level is set to IGNORE
2024-01-19T19:07:40,662  INFO ControlerUtils:88 Checking consistency of config done.
2024-01-19T19:07:40,663  INFO PrepareForSimImpl:122 Network seems to be multimodal. Create car-only network which is handed over to PersonPrepareForSim.
2024-01-19T19:07:40,664  INFO NetworkImpl:165  node # 1
2024-01-19T19:07:40,665  INFO NetworkImpl:165  node # 4
2024-01-19T19:07:40,665  INFO NetworkImpl:165  node # 16
2024-01-19T19:07:40,665  INFO NetworkImpl:165  node # 64
2024-01-19T19:07:40,665  INFO NetworkImpl:165  node # 256
2024-01-19T19:07:40,667  INFO NetworkImpl:165  node # 1024
2024-01-19T19:07:40,672  INFO NetworkImpl:165  node # 4096
2024-01-19T19:07:40,702  INFO NetworkImpl:165  node # 16384
2024-01-19T19:07:40,732  INFO NetworkImpl:161  link # 1
2024-01-19T19:07:40,732  INFO NetworkImpl:161  link # 4
2024-01-19T19:07:40,732  INFO NetworkImpl:161  link # 16
2024-01-19T19:07:40,733  INFO NetworkImpl:161  link # 64
2024-01-19T19:07:40,743  INFO NetworkImpl:161  link # 256
2024-01-19T19:07:40,789  INFO NetworkImpl:161  link # 1024
2024-01-19T19:07:40,803  INFO NetworkImpl:161  link # 4096
2024-01-19T19:07:40,859  INFO NetworkImpl:161  link # 16384
2024-01-19T19:07:40,917  INFO NetworkImpl:161  link # 65536
2024-01-19T19:07:40,952  INFO Counter:70 [VehiclesImpl] added vehicle # 1
2024-01-19T19:07:40,952  WARN PrepareForSimImpl:229 'usePersonIdForMissingVehicleId' is deprecated. It will be removed soon.
2024-01-19T19:07:40,953  INFO Counter:70 [VehiclesImpl] added vehicle # 2
2024-01-19T19:07:40,963  INFO EventsManagerImpl:138 adding Event-Handler: ch.sbb.matsim.routing.pt.raptor.SwissRailRaptorFactory$$Lambda$265/0x00000001004e57d8
2024-01-19T19:07:40,964  INFO EventsManagerImpl:144   org.matsim.pt.router.TransitScheduleChangedEventHandler
2024-01-19T19:07:40,964  INFO EventsManagerImpl:205     > org.matsim.pt.router.TransitScheduleChangedEvent
2024-01-19T19:07:40,964  INFO EventsManagerImpl:154 
2024-01-19T19:07:40,964  INFO EventsManagerImpl:138 adding Event-Handler: ch.sbb.matsim.routing.pt.raptor.SwissRailRaptorFactory$$Lambda$265/0x00000001004e57d8
2024-01-19T19:07:40,964  INFO EventsManagerImpl:144   org.matsim.pt.router.TransitScheduleChangedEventHandler
2024-01-19T19:07:40,964  INFO EventsManagerImpl:205     > org.matsim.pt.router.TransitScheduleChangedEvent
2024-01-19T19:07:40,964  INFO EventsManagerImpl:154 
2024-01-19T19:07:40,965  INFO SwissRailRaptorData:85 Preparing data for SwissRailRaptor...
2024-01-19T19:07:40,974  INFO SwissRailRaptorData:212 SwissRailRaptor data preparation done. Took 0 seconds.
2024-01-19T19:07:40,975  INFO SwissRailRaptorData:213 SwissRailRaptor statistics:  #routes = 2
2024-01-19T19:07:40,975  INFO SwissRailRaptorData:214 SwissRailRaptor statistics:  #departures = 91
2024-01-19T19:07:40,975  INFO SwissRailRaptorData:215 SwissRailRaptor statistics:  #routeStops = 46
2024-01-19T19:07:40,975  INFO SwissRailRaptorData:216 SwissRailRaptor statistics:  #stopFacilities = 46
2024-01-19T19:07:40,975  INFO SwissRailRaptorData:217 SwissRailRaptor statistics:  #transfers (between routeStops) = 0
2024-01-19T19:07:41,147  INFO PreProcessDijkstra:119 nodes in dead ends: 11414 (total nodes: 44164). Done in 160 ms
2024-01-19T19:07:41,151  WARN PreProcessEuclidean:60 There are links with stored length smaller than their Euclidean distance in this network. Thus, A* cannot guarantee to calculate the least-cost paths between two nodes.
2024-01-19T19:07:41,168  INFO PreProcessLandmarks:113 Putting landmarks on network...
2024-01-19T19:07:41,188  INFO LandmarkerPieSlices:97 Filling sectors...
2024-01-19T19:07:41,297  INFO LandmarkerPieSlices:108 Refining landmarks...
2024-01-19T19:07:41,300  INFO LandmarkerPieSlices:110 done
2024-01-19T19:07:41,301  INFO PreProcessLandmarks:116 done in 131 ms
2024-01-19T19:07:41,301  INFO PreProcessLandmarks:118 Initializing landmarks data
2024-01-19T19:07:41,324  INFO PreProcessLandmarks:130 Calculating distance from each node to each of the 16 landmarks using 2 threads...
2024-01-19T19:07:41,325  INFO PreProcessLandmarks:140 wait for landmarks Calculator to finish...
2024-01-19T19:07:42,140  INFO PreProcessLandmarks:164 done in 815 ms
2024-01-19T19:07:42,144  INFO NetworkImpl:165  node # 1
2024-01-19T19:07:42,144  INFO NetworkImpl:165  node # 4
2024-01-19T19:07:42,144  INFO NetworkImpl:165  node # 16
2024-01-19T19:07:42,144  INFO NetworkImpl:165  node # 64
2024-01-19T19:07:42,144  INFO NetworkImpl:165  node # 256
2024-01-19T19:07:42,145  INFO NetworkImpl:165  node # 1024
2024-01-19T19:07:42,145  INFO NetworkImpl:165  node # 4096
2024-01-19T19:07:42,149  INFO NetworkImpl:165  node # 16384
2024-01-19T19:07:42,158  INFO NetworkImpl:161  link # 1
2024-01-19T19:07:42,158  INFO NetworkImpl:161  link # 4
2024-01-19T19:07:42,158  INFO NetworkImpl:161  link # 16
2024-01-19T19:07:42,158  INFO NetworkImpl:161  link # 64
2024-01-19T19:07:42,159  INFO NetworkImpl:161  link # 256
2024-01-19T19:07:42,160  INFO NetworkImpl:161  link # 1024
2024-01-19T19:07:42,172  INFO NetworkImpl:161  link # 4096
2024-01-19T19:07:42,205  INFO NetworkImpl:161  link # 16384
2024-01-19T19:07:42,289  INFO NetworkImpl:161  link # 65536
2024-01-19T19:07:42,342  WARN RandomizingTimeDistanceTravelDisutilityFactory:113 There will be no routing randomness. The randomization of the travel disutility requires the monetary distance rate to be different than zero. Continuing anyway.
2024-01-19T19:07:42,342  WARN RandomizingTimeDistanceTravelDisutilityFactory:118 There will be no routing randomness. The randomization of the travel disutility requires the travel time cost rate to be different than zero. Continuing anyway.
2024-01-19T19:07:42,344  INFO RandomizingTimeDistanceTravelDisutilityFactory:86  sigma: 3.0; resulting normalization: 0.011108996538242306
2024-01-19T19:07:42,438  INFO PreProcessDijkstra:119 nodes in dead ends: 11414 (total nodes: 44082). Done in 90 ms
2024-01-19T19:07:42,440  WARN PreProcessEuclidean:60 There are links with stored length smaller than their Euclidean distance in this network. Thus, A* cannot guarantee to calculate the least-cost paths between two nodes.
2024-01-19T19:07:42,453  INFO PreProcessLandmarks:113 Putting landmarks on network...
2024-01-19T19:07:42,465  INFO LandmarkerPieSlices:97 Filling sectors...
2024-01-19T19:07:42,513  INFO LandmarkerPieSlices:108 Refining landmarks...
2024-01-19T19:07:42,519  INFO LandmarkerPieSlices:110 done
2024-01-19T19:07:42,519  INFO PreProcessLandmarks:116 done in 66 ms
2024-01-19T19:07:42,519  INFO PreProcessLandmarks:118 Initializing landmarks data
2024-01-19T19:07:42,536  INFO PreProcessLandmarks:130 Calculating distance from each node to each of the 16 landmarks using 2 threads...
2024-01-19T19:07:42,537  INFO PreProcessLandmarks:140 wait for landmarks Calculator to finish...
2024-01-19T19:07:43,059  INFO PreProcessLandmarks:164 done in 523 ms
2024-01-19T19:07:43,084  INFO RandomizingTimeDistanceTravelDisutilityFactory:86  sigma: 3.0; resulting normalization: 0.011108996538242306
2024-01-19T19:07:43,109  INFO NetworkImpl:419 building QuadTree for nodes: xrange(-970181.3870054634,-941429.5761751792); yrange(5024234.284042154,5050155.68996038)
2024-01-19T19:07:43,202  INFO NetworkImpl:428 Building QuadTree took 0.105 seconds.
2024-01-19T19:07:43,333  INFO Counter:70 [PersonPrepareForSim] handled person # 1
2024-01-19T19:07:43,334  INFO Counter:75 [PersonPrepareForSim] handled person # 1
2024-01-19T19:07:43,359  INFO AbstractController:134 ###################################################
2024-01-19T19:07:43,359  INFO AbstractController:135 ### ITERATION 0 BEGINS
2024-01-19T19:07:43,360  INFO ControlerListenerManagerImpl:146 calling notifyIterationStarts on org.matsim.analysis.LegHistogramListener
2024-01-19T19:07:43,360  INFO ControlerListenerManagerImpl:146 calling notifyIterationStarts on org.matsim.analysis.LinkStatsControlerListener
2024-01-19T19:07:43,361  INFO ControlerListenerManagerImpl:146 calling notifyIterationStarts on org.matsim.core.replanning.ReplanningContextImpl
2024-01-19T19:07:43,361  INFO ControlerListenerManagerImpl:146 calling notifyIterationStarts on org.matsim.core.scoring.ScoringFunctionsForPopulation$$Lambda$226/0x0000000100452be8
2024-01-19T19:07:43,376  INFO ControlerListenerManagerImpl:146 calling notifyIterationStarts on org.matsim.core.scoring.ExperiencedPlansServiceImpl$1
2024-01-19T19:07:43,376  INFO ControlerListenerManagerImpl:149 [it.0] all ControlerIterationStartsListeners called.
2024-01-19T19:07:43,377  INFO ControlerListenerManagerImpl:225 calling notifyBeforeMobsim on org.matsim.core.controler.corelisteners.EventsHandlingImpl
2024-01-19T19:07:43,378  INFO EventsManagerImpl:168 resetting Event-Handlers
2024-01-19T19:07:43,378  INFO EventsManagerImpl:175   org.matsim.core.trafficmonitoring.TravelTimeCalculator
2024-01-19T19:07:43,394  INFO EventsManagerImpl:175   org.matsim.analysis.VolumesAnalyzer
2024-01-19T19:07:43,395  INFO EventsManagerImpl:175   org.matsim.core.scoring.ScoringFunctionsForPopulation
2024-01-19T19:07:43,395  INFO EventsManagerImpl:175   org.matsim.analysis.LegHistogram
2024-01-19T19:07:43,395  INFO EventsManagerImpl:175   org.matsim.analysis.CalcLegTimes
2024-01-19T19:07:43,395  INFO EventsManagerImpl:175   ch.sbb.matsim.routing.pt.raptor.SwissRailRaptorFactory$$Lambda$265/0x00000001004e57d8
2024-01-19T19:07:43,403  INFO EventsManagerImpl:138 adding Event-Handler: org.matsim.core.events.algorithms.EventWriterXML
2024-01-19T19:07:43,403  INFO EventsManagerImpl:144   org.matsim.core.events.algorithms.EventWriter
2024-01-19T19:07:43,403  INFO EventsManagerImpl:144   org.matsim.core.events.handler.BasicEventHandler
2024-01-19T19:07:43,403  INFO EventsManagerImpl:205     > org.matsim.api.core.v01.events.Event
2024-01-19T19:07:43,403  INFO EventsManagerImpl:154 
2024-01-19T19:07:43,403  INFO EventsManagerImpl:138 adding Event-Handler: org.matsim.core.events.algorithms.EventWriterXML
2024-01-19T19:07:43,404  INFO EventsManagerImpl:144   org.matsim.core.events.algorithms.EventWriter
2024-01-19T19:07:43,404  INFO EventsManagerImpl:144   org.matsim.core.events.handler.BasicEventHandler
2024-01-19T19:07:43,404  INFO EventsManagerImpl:205     > org.matsim.api.core.v01.events.Event
2024-01-19T19:07:43,404  INFO EventsManagerImpl:154 
2024-01-19T19:07:43,404  INFO ControlerListenerManagerImpl:225 calling notifyBeforeMobsim on org.matsim.core.controler.corelisteners.PlansDumpingImpl
2024-01-19T19:07:43,404  INFO PlansDumpingImpl:77 dumping plans...
2024-01-19T19:07:43,437  INFO Counter:70 [PopulationWriter] dumped person # 1
2024-01-19T19:07:43,438  INFO PopulationWriter:145 Population written to: ./../output/ITERS/it.0/0.plans.xml.gz
2024-01-19T19:07:43,438  INFO Counter:75 [PopulationWriter] dumped person # 1
2024-01-19T19:07:43,438  INFO PlansDumpingImpl:94 finished plans dump.
2024-01-19T19:07:43,438  INFO ControlerListenerManagerImpl:230 calling notifyBeforeMobsim on org.matsim.core.population.VspPlansCleaner
2024-01-19T19:07:43,439  INFO ControlerListenerManagerImpl:233 [it.0] all ControlerBeforeMobsimListeners called.
2024-01-19T19:07:43,439  INFO PrepareForMobsimImpl:87 Network seems to be multimodal. Create car-only network which is handed over to PersonPrepareForSim.
2024-01-19T19:07:43,440  INFO NetworkImpl:165  node # 1
2024-01-19T19:07:43,440  INFO NetworkImpl:165  node # 4
2024-01-19T19:07:43,440  INFO NetworkImpl:165  node # 16
2024-01-19T19:07:43,440  INFO NetworkImpl:165  node # 64
2024-01-19T19:07:43,441  INFO NetworkImpl:165  node # 256
2024-01-19T19:07:43,441  INFO NetworkImpl:165  node # 1024
2024-01-19T19:07:43,443  INFO NetworkImpl:165  node # 4096
2024-01-19T19:07:43,449  INFO NetworkImpl:165  node # 16384
2024-01-19T19:07:43,462  INFO NetworkImpl:161  link # 1
2024-01-19T19:07:43,463  INFO NetworkImpl:161  link # 4
2024-01-19T19:07:43,463  INFO NetworkImpl:161  link # 16
2024-01-19T19:07:43,463  INFO NetworkImpl:161  link # 64
2024-01-19T19:07:43,464  INFO NetworkImpl:161  link # 256
2024-01-19T19:07:43,470  INFO NetworkImpl:161  link # 1024
2024-01-19T19:07:43,478  INFO NetworkImpl:161  link # 4096
2024-01-19T19:07:43,500  INFO NetworkImpl:161  link # 16384
2024-01-19T19:07:43,557  INFO NetworkImpl:161  link # 65536
2024-01-19T19:07:43,589  INFO RandomizingTimeDistanceTravelDisutilityFactory:86  sigma: 3.0; resulting normalization: 0.011108996538242306
2024-01-19T19:07:43,600  INFO RandomizingTimeDistanceTravelDisutilityFactory:86  sigma: 3.0; resulting normalization: 0.011108996538242306
2024-01-19T19:07:43,607  INFO Counter:70 [PersonPrepareForSim] handled person # 1
2024-01-19T19:07:43,608  INFO Counter:75 [PersonPrepareForSim] handled person # 1
2024-01-19T19:07:43,668  INFO MobsimListenerManager:50 calling addQueueSimulationListener
2024-01-19T19:07:43,668  INFO MobsimListenerManager:54   assigned class org.matsim.core.mobsim.framework.listeners.MobsimListener to interface org.matsim.core.mobsim.framework.listeners.MobsimListener
2024-01-19T19:07:43,668  INFO MobsimListenerManager:54   assigned class org.matsim.core.mobsim.framework.listeners.MobsimListener to interface org.matsim.core.mobsim.framework.listeners.MobsimBeforeCleanupListener
2024-01-19T19:07:43,668  INFO MobsimListenerManager:54   assigned class org.matsim.core.mobsim.framework.listeners.MobsimListener to interface org.matsim.core.mobsim.framework.listeners.MobsimInitializedListener
2024-01-19T19:07:43,668  INFO MobsimListenerManager:54   assigned class org.matsim.core.mobsim.framework.listeners.MobsimListener to interface org.matsim.vis.snapshotwriters.SnapshotWriterManager
2024-01-19T19:07:43,669  INFO MobsimListenerManager:54   assigned class org.matsim.core.mobsim.framework.listeners.MobsimListener to interface org.matsim.core.mobsim.framework.listeners.MobsimAfterSimStepListener
2024-01-19T19:07:43,716  WARN QueueWithBuffer:500 Link pt_0_bus too small: enlarge storage capacity from: 27.77777777777778 Vehicles to: 50.0 Vehicles.  This is not fatal, but modifies the traffic flow dynamics.
2024-01-19T19:07:43,718  WARN QueueWithBuffer:500 Link pt_1_bus too small: enlarge storage capacity from: 105.17529063559581 Vehicles to: 788.8146797669687 Vehicles.  This is not fatal, but modifies the traffic flow dynamics.
2024-01-19T19:07:43,718  WARN QueueWithBuffer:500 Link pt_10_bus too small: enlarge storage capacity from: 100.92307474753315 Vehicles to: 756.9230606064987 Vehicles.  This is not fatal, but modifies the traffic flow dynamics.
2024-01-19T19:07:43,718  WARN QueueWithBuffer:500 Link pt_100_bus too small: enlarge storage capacity from: 48.17484921601171 Vehicles to: 361.3113691200878 Vehicles.  This is not fatal, but modifies the traffic flow dynamics.
2024-01-19T19:07:43,719  WARN QueueWithBuffer:500 Link pt_1000_bus too small: enlarge storage capacity from: 41.82372844956319 Vehicles to: 313.67796337172393 Vehicles.  This is not fatal, but modifies the traffic flow dynamics.
2024-01-19T19:07:43,719  WARN QueueWithBuffer:500 Link pt_1001_bus too small: enlarge storage capacity from: 39.46737625100742 Vehicles to: 296.0053218825557 Vehicles.  This is not fatal, but modifies the traffic flow dynamics.
2024-01-19T19:07:43,719  WARN QueueWithBuffer:500 Link pt_1002_bus too small: enlarge storage capacity from: 75.8324360903052 Vehicles to: 568.7432706772889 Vehicles.  This is not fatal, but modifies the traffic flow dynamics.
2024-01-19T19:07:43,719  WARN QueueWithBuffer:500 Link pt_1003_bus too small: enlarge storage capacity from: 94.35843320642431 Vehicles to: 707.6882490481823 Vehicles.  This is not fatal, but modifies the traffic flow dynamics.
2024-01-19T19:07:43,719  WARN QueueWithBuffer:500 Link pt_1004_bus too small: enlarge storage capacity from: 33.61287721127312 Vehicles to: 252.09657908454844 Vehicles.  This is not fatal, but modifies the traffic flow dynamics.
2024-01-19T19:07:43,719  WARN QueueWithBuffer:500 Link pt_1005_bus too small: enlarge storage capacity from: 35.90427244451733 Vehicles to: 269.28204333388 Vehicles.  This is not fatal, but modifies the traffic flow dynamics.
2024-01-19T19:07:43,719  WARN QueueWithBuffer:500 Link pt_1006_bus too small: enlarge storage capacity from: 42.189122774588455 Vehicles to: 316.4184208094134 Vehicles.  This is not fatal, but modifies the traffic flow dynamics.
2024-01-19T19:07:43,719  WARN QueueWithBuffer:503 Additional warnings of this type are suppressed.
2024-01-19T19:07:44,068  INFO QSimProvider:131 Added MobsimEngine class org.matsim.core.mobsim.qsim.ActivityEngineDefaultImpl
2024-01-19T19:07:44,068  INFO QSimProvider:137 Added Activityhandler class org.matsim.core.mobsim.qsim.ActivityEngineDefaultImpl
2024-01-19T19:07:44,069  INFO QSimProvider:143 Added DepartureHandler class org.matsim.core.mobsim.qsim.qnetsimengine.VehicularDepartureHandler
2024-01-19T19:07:44,069  INFO QSimProvider:131 Added MobsimEngine class org.matsim.core.mobsim.qsim.qnetsimengine.QNetsimEngineWithThreadpool
2024-01-19T19:07:44,069  INFO QSimProvider:131 Added MobsimEngine class org.matsim.core.mobsim.qsim.DefaultTeleportationEngine
2024-01-19T19:07:44,069  INFO QSimProvider:143 Added DepartureHandler class org.matsim.core.mobsim.qsim.DefaultTeleportationEngine
2024-01-19T19:07:44,069  INFO QSimProvider:149 Added AgentSource class org.matsim.core.mobsim.qsim.agents.PopulationAgentSource
2024-01-19T19:07:44,069  INFO MobsimListenerManager:50 calling addQueueSimulationListener
2024-01-19T19:07:44,069  INFO MobsimListenerManager:54   assigned class org.matsim.core.mobsim.framework.listeners.MobsimListener to interface org.matsim.core.mobsim.framework.listeners.MobsimListener
2024-01-19T19:07:44,069  INFO MobsimListenerManager:54   assigned class org.matsim.core.mobsim.framework.listeners.MobsimListener to interface org.matsim.core.mobsim.framework.listeners.MobsimBeforeSimStepListener
2024-01-19T19:07:44,069  INFO MobsimListenerManager:54   assigned class org.matsim.core.mobsim.framework.listeners.MobsimListener to interface org.matsim.core.mobsim.qsim.messagequeueengine.MessageQueueEngine
2024-01-19T19:07:44,069  INFO QSimProvider:155 Added MobsimListener class org.matsim.core.mobsim.qsim.messagequeueengine.MessageQueueEngine
2024-01-19T19:07:44,071  INFO QSimProvider:131 Added MobsimEngine class org.matsim.core.mobsim.qsim.pt.TransitQSimEngine
2024-01-19T19:07:44,071  INFO QSimProvider:143 Added DepartureHandler class org.matsim.core.mobsim.qsim.pt.TransitQSimEngine
2024-01-19T19:07:44,071  INFO QSimProvider:149 Added AgentSource class org.matsim.core.mobsim.qsim.pt.TransitQSimEngine
2024-01-19T19:07:44,090  INFO PopulationUtils:1202 adding scenario element for allpersons container
2024-01-19T19:07:44,090  INFO PopulationImpl:107  person # 1
2024-01-19T19:07:44,091  INFO VehicleUtils:328 adding scenario element for allvehicles container
2024-01-19T19:07:44,091  INFO Counter:70 [VehiclesImpl] added vehicle # 1
2024-01-19T19:07:44,097  INFO ReconstructingUmlaufBuilder:133 Generating UmlaufStuecke ...
2024-01-19T19:07:44,102  INFO ReconstructingUmlaufBuilder:146 ... done generating UmlaufStuecke
2024-01-19T19:07:44,114  INFO Counter:70 [VehiclesImpl] added vehicle # 2
2024-01-19T19:07:44,115  INFO Counter:70 [VehiclesImpl] added vehicle # 4
2024-01-19T19:07:44,116  INFO Counter:70 [VehiclesImpl] added vehicle # 8
2024-01-19T19:07:44,116  INFO Counter:70 [VehiclesImpl] added vehicle # 16
2024-01-19T19:07:44,117  INFO Counter:70 [VehiclesImpl] added vehicle # 32
2024-01-19T19:07:44,120  INFO Counter:70 [VehiclesImpl] added vehicle # 64
2024-01-19T19:07:44,241  INFO AbstractQNetsimEngine:428 Assigned 44164 nodes and 91176 links to QSimEngineRunner #0
2024-01-19T19:07:44,243  INFO EventsManagerImpl:115  event # 1
2024-01-19T19:07:44,249  INFO EventsManagerImpl:115  event # 4
2024-01-19T19:07:44,261  INFO AbstractQNetsimEngine:366 SIMULATION (QNetsimEngine) AT 06:19:00 : #links=0 #nodes=1
2024-01-19T19:07:44,272  INFO QSim:566 SIMULATION (NEW QSim) AT 06:19:00 : #Veh=92 lost=0 simT=0.0s realT=0s; (s/r): 0.0
2024-01-19T19:07:44,313  INFO EventsManagerImpl:115  event # 16
2024-01-19T19:07:44,366  INFO EventsManagerImpl:115  event # 64
2024-01-19T19:07:44,425  INFO AbstractQNetsimEngine:366 SIMULATION (QNetsimEngine) AT 07:00:00 : #links=0 #nodes=2
2024-01-19T19:07:44,425  INFO QSim:566 SIMULATION (NEW QSim) AT 07:00:00 : #Veh=91 lost=0 simT=2460.0s realT=0s; (s/r): Infinity
2024-01-19T19:07:44,448  INFO EventsManagerImpl:115  event # 256
2024-01-19T19:07:44,590  INFO AbstractQNetsimEngine:366 SIMULATION (QNetsimEngine) AT 08:00:00 : #links=1 #nodes=3
2024-01-19T19:07:44,590  INFO QSim:566 SIMULATION (NEW QSim) AT 08:00:00 : #Veh=85 lost=0 simT=6060.0s realT=0s; (s/r): Infinity
2024-01-19T19:07:44,624  INFO EventsManagerImpl:115  event # 1024
2024-01-19T19:07:44,739  INFO AbstractQNetsimEngine:366 SIMULATION (QNetsimEngine) AT 09:00:00 : #links=2 #nodes=3
2024-01-19T19:07:44,739  INFO QSim:566 SIMULATION (NEW QSim) AT 09:00:00 : #Veh=79 lost=0 simT=9660.0s realT=1s; (s/r): 9660.0
2024-01-19T19:07:44,872  INFO AbstractQNetsimEngine:366 SIMULATION (QNetsimEngine) AT 10:00:00 : #links=3 #nodes=0
2024-01-19T19:07:44,872  INFO QSim:566 SIMULATION (NEW QSim) AT 10:00:00 : #Veh=73 lost=0 simT=13260.0s realT=1s; (s/r): 13260.0
2024-01-19T19:07:45,027  INFO AbstractQNetsimEngine:366 SIMULATION (QNetsimEngine) AT 11:00:00 : #links=0 #nodes=1
2024-01-19T19:07:45,027  INFO QSim:566 SIMULATION (NEW QSim) AT 11:00:00 : #Veh=69 lost=0 simT=16860.0s realT=1s; (s/r): 16860.0
2024-01-19T19:07:45,118  INFO AbstractQNetsimEngine:366 SIMULATION (QNetsimEngine) AT 12:00:00 : #links=0 #nodes=2
2024-01-19T19:07:45,118  INFO QSim:566 SIMULATION (NEW QSim) AT 12:00:00 : #Veh=66 lost=0 simT=20460.0s realT=1s; (s/r): 20460.0
2024-01-19T19:07:45,215  INFO AbstractQNetsimEngine:366 SIMULATION (QNetsimEngine) AT 13:00:00 : #links=0 #nodes=2
2024-01-19T19:07:45,215  INFO QSim:566 SIMULATION (NEW QSim) AT 13:00:00 : #Veh=63 lost=0 simT=24060.0s realT=1s; (s/r): 24060.0
2024-01-19T19:07:45,307  INFO AbstractQNetsimEngine:366 SIMULATION (QNetsimEngine) AT 14:00:00 : #links=0 #nodes=1
2024-01-19T19:07:45,308  INFO QSim:566 SIMULATION (NEW QSim) AT 14:00:00 : #Veh=59 lost=0 simT=27660.0s realT=1s; (s/r): 27660.0
2024-01-19T19:07:45,368  INFO EventsManagerImpl:115  event # 4096
2024-01-19T19:07:45,394  INFO AbstractQNetsimEngine:366 SIMULATION (QNetsimEngine) AT 15:00:00 : #links=0 #nodes=2
2024-01-19T19:07:45,394  INFO QSim:566 SIMULATION (NEW QSim) AT 15:00:00 : #Veh=57 lost=0 simT=31260.0s realT=1s; (s/r): 31260.0
2024-01-19T19:07:45,482  INFO AbstractQNetsimEngine:366 SIMULATION (QNetsimEngine) AT 16:00:00 : #links=1 #nodes=1
2024-01-19T19:07:45,482  INFO QSim:566 SIMULATION (NEW QSim) AT 16:00:00 : #Veh=55 lost=0 simT=34860.0s realT=1s; (s/r): 34860.0
2024-01-19T19:07:45,573  INFO AbstractQNetsimEngine:366 SIMULATION (QNetsimEngine) AT 17:00:00 : #links=1 #nodes=5
2024-01-19T19:07:45,573  INFO QSim:566 SIMULATION (NEW QSim) AT 17:00:00 : #Veh=51 lost=0 simT=38460.0s realT=1s; (s/r): 38460.0
2024-01-19T19:07:45,582 ERROR BasicPlanAgentImpl:187 last activity of person driver agent id 1 has end time < infty; setting it to infty
2024-01-19T19:07:45,583 ERROR BasicPlanAgentImpl:188  This message given only once.
2024-01-19T19:07:45,662  INFO AbstractQNetsimEngine:366 SIMULATION (QNetsimEngine) AT 18:00:00 : #links=1 #nodes=4
2024-01-19T19:07:45,662  INFO QSim:566 SIMULATION (NEW QSim) AT 18:00:00 : #Veh=42 lost=0 simT=42060.0s realT=1s; (s/r): 42060.0
2024-01-19T19:07:45,750  INFO AbstractQNetsimEngine:366 SIMULATION (QNetsimEngine) AT 19:00:00 : #links=1 #nodes=3
2024-01-19T19:07:45,750  INFO QSim:566 SIMULATION (NEW QSim) AT 19:00:00 : #Veh=34 lost=0 simT=45660.0s realT=2s; (s/r): 22830.0
2024-01-19T19:07:45,860  INFO AbstractQNetsimEngine:366 SIMULATION (QNetsimEngine) AT 20:00:00 : #links=2 #nodes=2
2024-01-19T19:07:45,860  INFO QSim:566 SIMULATION (NEW QSim) AT 20:00:00 : #Veh=27 lost=0 simT=49260.0s realT=2s; (s/r): 24630.0
2024-01-19T19:07:45,951  INFO AbstractQNetsimEngine:366 SIMULATION (QNetsimEngine) AT 21:00:00 : #links=3 #nodes=2
2024-01-19T19:07:45,952  INFO QSim:566 SIMULATION (NEW QSim) AT 21:00:00 : #Veh=19 lost=0 simT=52860.0s realT=2s; (s/r): 26430.0
2024-01-19T19:07:46,036  INFO AbstractQNetsimEngine:366 SIMULATION (QNetsimEngine) AT 22:00:00 : #links=1 #nodes=2
2024-01-19T19:07:46,036  INFO QSim:566 SIMULATION (NEW QSim) AT 22:00:00 : #Veh=13 lost=0 simT=56460.0s realT=2s; (s/r): 28230.0
2024-01-19T19:07:46,118  INFO AbstractQNetsimEngine:366 SIMULATION (QNetsimEngine) AT 23:00:00 : #links=1 #nodes=2
2024-01-19T19:07:46,118  INFO QSim:566 SIMULATION (NEW QSim) AT 23:00:00 : #Veh=9 lost=0 simT=60060.0s realT=2s; (s/r): 30030.0
2024-01-19T19:07:46,207  INFO AbstractQNetsimEngine:366 SIMULATION (QNetsimEngine) AT 24:00:00 : #links=0 #nodes=1
2024-01-19T19:07:46,207  INFO QSim:566 SIMULATION (NEW QSim) AT 24:00:00 : #Veh=6 lost=0 simT=63660.0s realT=2s; (s/r): 31830.0
2024-01-19T19:07:46,291  INFO AbstractQNetsimEngine:366 SIMULATION (QNetsimEngine) AT 25:00:00 : #links=2 #nodes=2
2024-01-19T19:07:46,292  INFO QSim:566 SIMULATION (NEW QSim) AT 25:00:00 : #Veh=4 lost=0 simT=67260.0s realT=2s; (s/r): 33630.0
2024-01-19T19:07:46,408  INFO AbstractController$9:235 ### ITERATION 0 fires after mobsim event
2024-01-19T19:07:46,408  INFO ControlerListenerManagerImpl:249 calling notifyAfterMobsim on org.matsim.analysis.LegTimesControlerListener
2024-01-19T19:07:46,409  INFO Gbl:192 Thread performance: Thread=class org.matsim.core.events.SimStepParallelEventsManagerImpl$ProcessEventsRunnable0  cpu-time=0.428091934sec
2024-01-19T19:07:46,412  INFO LegTimesControlerListener:51 [0] average trip (probably: leg) duration is: 356 seconds = 00:05:56
2024-01-19T19:07:46,412  INFO ControlerListenerManagerImpl:249 calling notifyAfterMobsim on org.matsim.core.events.MobsimScopeEventHandling
2024-01-19T19:07:46,414  INFO ControlerListenerManagerImpl:249 calling notifyAfterMobsim on org.matsim.core.scoring.EventsToActivities$1
2024-01-19T19:07:46,414  INFO ControlerListenerManagerImpl:252 [it.0] all ControlerAfterMobsimListeners called.
2024-01-19T19:07:46,415  INFO AbstractController$4:160 ### ITERATION 0 fires scoring event
2024-01-19T19:07:46,416  INFO ControlerListenerManagerImpl:184 calling notifyScoring on org.matsim.core.scoring.PlansScoringImpl
2024-01-19T19:07:46,424  INFO NewScoreAssignerImpl:58 it: 0 msaStart: null
2024-01-19T19:07:46,425  INFO ControlerListenerManagerImpl:195 [it.0] all ControlerScoringListeners called.
2024-01-19T19:07:46,426  INFO AbstractController$5:168 ### ITERATION 0 fires iteration end event
2024-01-19T19:07:46,426  INFO ControlerListenerManagerImpl:161 calling notifyIterationEnds on org.matsim.core.controler.corelisteners.EventsHandlingImpl
2024-01-19T19:07:46,427  INFO EventsManagerImpl:159 removing Event-Handler: org.matsim.core.events.algorithms.EventWriterXML
2024-01-19T19:07:46,427  INFO EventsManagerImpl:159 removing Event-Handler: org.matsim.core.events.algorithms.EventWriterXML
2024-01-19T19:07:46,427  INFO ControlerListenerManagerImpl:161 calling notifyIterationEnds on org.matsim.core.scoring.PlansScoringImpl
2024-01-19T19:07:46,428  INFO ControlerListenerManagerImpl:168 calling notifyIterationEnds on org.matsim.counts.CountsControlerListener
2024-01-19T19:07:46,428  INFO ControlerListenerManagerImpl:168 calling notifyIterationEnds on org.matsim.analysis.ModeStatsControlerListener
2024-01-19T19:07:46,429  INFO ModeStatsControlerListener:145 Mode shares over all 3.0 trips found. MainModeIdentifier: class org.matsim.core.router.RoutingModeMainModeIdentifier
2024-01-19T19:07:46,429  INFO ModeStatsControlerListener:152 -- mode share of mode car = 1.0
2024-01-19T19:07:46,430  INFO ControlerListenerManagerImpl:168 calling notifyIterationEnds on org.matsim.analysis.ScoreStatsControlerListener
2024-01-19T19:07:46,430  INFO ScoreStatsControlerListener:182 -- avg. score of the executed plan of each agent: 56.65276603032654
2024-01-19T19:07:46,431  INFO ScoreStatsControlerListener:183 -- avg. score of the worst plan of each agent: 56.65276603032654
2024-01-19T19:07:46,431  INFO ScoreStatsControlerListener:184 -- avg. of the avg. plan score per agent: 56.65276603032654
2024-01-19T19:07:46,431  INFO ScoreStatsControlerListener:185 -- avg. score of the best plan of each agent: 56.65276603032654
2024-01-19T19:07:46,440  INFO ControlerListenerManagerImpl:168 calling notifyIterationEnds on org.matsim.analysis.IterationTravelStatsControlerListener
2024-01-19T19:07:46,465  INFO TravelDistanceStats:144 -- average leg distance per plan (executed plans only): 5013.976650524703 meters
2024-01-19T19:07:46,465  INFO TravelDistanceStats:145 average leg distance per Person (executed plans only): 15041.929951574108 meters (statistic on all 3 legs which have a finite distance)
2024-01-19T19:07:46,466  INFO TravelDistanceStats:146 -- average trip distance per plan (executed plans only): 5013.976650524703 meters
2024-01-19T19:07:46,466  INFO TravelDistanceStats:147 average trip distance per Person (executed plans only): 15041.929951574108 meters (statistic on all 3 trips which have a finite distance)
2024-01-19T19:07:46,467  INFO TravelDistanceStats:148 (TravelDistanceStats takes an average over all legs where the simulation reports travelled (network) distances
2024-01-19T19:07:46,467  INFO TravelDistanceStats:149 (and teleported legs whose route contains a distance.)
2024-01-19T19:07:47,273  INFO ControlerListenerManagerImpl:168 calling notifyIterationEnds on org.matsim.analysis.LegHistogramListener
2024-01-19T19:07:47,278  INFO LegHistogramListener:73 number of legs:	3	100%
2024-01-19T19:07:47,280  INFO LegHistogramListener:80 number of car legs:	3	100.0%
2024-01-19T19:07:47,416  INFO ControlerListenerManagerImpl:168 calling notifyIterationEnds on org.matsim.analysis.LinkStatsControlerListener
2024-01-19T19:07:47,416  INFO ControlerListenerManagerImpl:172 [it.0] all ControlerIterationEndsListeners called.
2024-01-19T19:07:47,490  INFO AbstractController:182 ### ITERATION 0 ENDS
2024-01-19T19:07:47,490  INFO AbstractController:183 ###################################################
2024-01-19T19:07:47,490  INFO AbstractController:134 ###################################################
2024-01-19T19:07:47,490  INFO AbstractController:135 ### ITERATION 1 BEGINS
2024-01-19T19:07:47,490  INFO ControlerListenerManagerImpl:146 calling notifyIterationStarts on org.matsim.analysis.LegHistogramListener
2024-01-19T19:07:47,490  INFO ControlerListenerManagerImpl:146 calling notifyIterationStarts on org.matsim.analysis.LinkStatsControlerListener
2024-01-19T19:07:47,490  INFO ControlerListenerManagerImpl:146 calling notifyIterationStarts on org.matsim.core.replanning.ReplanningContextImpl
2024-01-19T19:07:47,490  INFO ControlerListenerManagerImpl:146 calling notifyIterationStarts on org.matsim.core.scoring.ScoringFunctionsForPopulation$$Lambda$226/0x0000000100452be8
2024-01-19T19:07:47,490  INFO ControlerListenerManagerImpl:146 calling notifyIterationStarts on org.matsim.core.scoring.ExperiencedPlansServiceImpl$1
2024-01-19T19:07:47,490  INFO ControlerListenerManagerImpl:149 [it.1] all ControlerIterationStartsListeners called.
2024-01-19T19:07:47,491  INFO ControlerListenerManagerImpl:206 calling notifyReplanning on org.matsim.core.controler.corelisteners.PlansReplanningImpl
2024-01-19T19:07:47,492  INFO RandomizingTimeDistanceTravelDisutilityFactory:86  sigma: 3.0; resulting normalization: 0.011108996538242306
2024-01-19T19:07:47,494  INFO RandomizingTimeDistanceTravelDisutilityFactory:86  sigma: 3.0; resulting normalization: 0.011108996538242306
2024-01-19T19:07:47,498  INFO GenericPlanStrategyImpl:127 Plan-Strategy finished, 1 plans handled. Strategy: BestPlanSelector
2024-01-19T19:07:47,499  INFO AbstractMultithreadedModule:142 [PlanRouter] starting 2 threads, handling 0 plans
2024-01-19T19:07:47,500  INFO AbstractMultithreadedModule:157 [PlanRouter] all 2 threads finished.
2024-01-19T19:07:47,500  INFO GenericPlanStrategyImpl:127 Plan-Strategy finished, 0 plans handled. Strategy: RandomPlanSelector_ReRoute
2024-01-19T19:07:47,500  INFO AbstractMultithreadedModule:142 [TripsToLegsAlgorithm] starting 2 threads, handling 0 plans
2024-01-19T19:07:47,501  INFO AbstractMultithreadedModule:157 [TripsToLegsAlgorithm] all 2 threads finished.
2024-01-19T19:07:47,502  INFO AbstractMultithreadedModule:142 [ChooseRandomLegMode] starting 2 threads, handling 0 plans
2024-01-19T19:07:47,503  INFO AbstractMultithreadedModule:157 [ChooseRandomLegMode] all 2 threads finished.
2024-01-19T19:07:47,503  INFO RandomizingTimeDistanceTravelDisutilityFactory:86  sigma: 3.0; resulting normalization: 0.011108996538242306
2024-01-19T19:07:47,504  INFO RandomizingTimeDistanceTravelDisutilityFactory:86  sigma: 3.0; resulting normalization: 0.011108996538242306
[...]
2024-01-19T19:08:09,443  INFO NetworkImpl:161  link # 65536
2024-01-19T19:08:09,478  INFO Counter:70 [PersonPrepareForSim] handled person # 1
2024-01-19T19:08:09,479  INFO Counter:75 [PersonPrepareForSim] handled person # 1
2024-01-19T19:08:09,488  INFO MobsimListenerManager:50 calling addQueueSimulationListener
2024-01-19T19:08:09,488  INFO MobsimListenerManager:54   assigned class org.matsim.core.mobsim.framework.listeners.MobsimListener to interface org.matsim.core.mobsim.framework.listeners.MobsimListener
2024-01-19T19:08:09,488  INFO MobsimListenerManager:54   assigned class org.matsim.core.mobsim.framework.listeners.MobsimListener to interface org.matsim.core.mobsim.framework.listeners.MobsimBeforeCleanupListener
2024-01-19T19:08:09,488  INFO MobsimListenerManager:54   assigned class org.matsim.core.mobsim.framework.listeners.MobsimListener to interface org.matsim.core.mobsim.framework.listeners.MobsimInitializedListener
2024-01-19T19:08:09,488  INFO MobsimListenerManager:54   assigned class org.matsim.core.mobsim.framework.listeners.MobsimListener to interface org.matsim.vis.snapshotwriters.SnapshotWriterManager
2024-01-19T19:08:09,488  INFO MobsimListenerManager:54   assigned class org.matsim.core.mobsim.framework.listeners.MobsimListener to interface org.matsim.core.mobsim.framework.listeners.MobsimAfterSimStepListener
2024-01-19T19:08:09,613  INFO QSimProvider:131 Added MobsimEngine class org.matsim.core.mobsim.qsim.ActivityEngineDefaultImpl
2024-01-19T19:08:09,614  INFO QSimProvider:137 Added Activityhandler class org.matsim.core.mobsim.qsim.ActivityEngineDefaultImpl
2024-01-19T19:08:09,614  INFO QSimProvider:143 Added DepartureHandler class org.matsim.core.mobsim.qsim.qnetsimengine.VehicularDepartureHandler
2024-01-19T19:08:09,614  INFO QSimProvider:131 Added MobsimEngine class org.matsim.core.mobsim.qsim.qnetsimengine.QNetsimEngineWithThreadpool
2024-01-19T19:08:09,614  INFO QSimProvider:131 Added MobsimEngine class org.matsim.core.mobsim.qsim.DefaultTeleportationEngine
2024-01-19T19:08:09,614  INFO QSimProvider:143 Added DepartureHandler class org.matsim.core.mobsim.qsim.DefaultTeleportationEngine
2024-01-19T19:08:09,614  INFO QSimProvider:149 Added AgentSource class org.matsim.core.mobsim.qsim.agents.PopulationAgentSource
2024-01-19T19:08:09,614  INFO MobsimListenerManager:50 calling addQueueSimulationListener
2024-01-19T19:08:09,614  INFO MobsimListenerManager:54   assigned class org.matsim.core.mobsim.framework.listeners.MobsimListener to interface org.matsim.core.mobsim.framework.listeners.MobsimListener
2024-01-19T19:08:09,614  INFO MobsimListenerManager:54   assigned class org.matsim.core.mobsim.framework.listeners.MobsimListener to interface org.matsim.core.mobsim.framework.listeners.MobsimBeforeSimStepListener
2024-01-19T19:08:09,614  INFO MobsimListenerManager:54   assigned class org.matsim.core.mobsim.framework.listeners.MobsimListener to interface org.matsim.core.mobsim.qsim.messagequeueengine.MessageQueueEngine
2024-01-19T19:08:09,614  INFO QSimProvider:155 Added MobsimListener class org.matsim.core.mobsim.qsim.messagequeueengine.MessageQueueEngine
2024-01-19T19:08:09,614  INFO QSimProvider:131 Added MobsimEngine class org.matsim.core.mobsim.qsim.pt.TransitQSimEngine
2024-01-19T19:08:09,614  INFO QSimProvider:143 Added DepartureHandler class org.matsim.core.mobsim.qsim.pt.TransitQSimEngine
2024-01-19T19:08:09,614  INFO QSimProvider:149 Added AgentSource class org.matsim.core.mobsim.qsim.pt.TransitQSimEngine
2024-01-19T19:08:09,615  INFO ReconstructingUmlaufBuilder:133 Generating UmlaufStuecke ...
2024-01-19T19:08:09,615  INFO ReconstructingUmlaufBuilder:146 ... done generating UmlaufStuecke
2024-01-19T19:08:09,674  INFO AbstractQNetsimEngine:428 Assigned 44164 nodes and 91176 links to QSimEngineRunner #0
2024-01-19T19:08:09,675  INFO AbstractQNetsimEngine:366 SIMULATION (QNetsimEngine) AT 06:19:00 : #links=0 #nodes=1
2024-01-19T19:08:09,675  INFO QSim:566 SIMULATION (NEW QSim) AT 06:19:00 : #Veh=92 lost=0 simT=0.0s realT=0s; (s/r): 0.0
2024-01-19T19:08:09,733  INFO AbstractQNetsimEngine:366 SIMULATION (QNetsimEngine) AT 07:00:00 : #links=0 #nodes=2
2024-01-19T19:08:09,733  INFO QSim:566 SIMULATION (NEW QSim) AT 07:00:00 : #Veh=91 lost=0 simT=2460.0s realT=0s; (s/r): Infinity
2024-01-19T19:08:09,817  INFO AbstractQNetsimEngine:366 SIMULATION (QNetsimEngine) AT 08:00:00 : #links=1 #nodes=3
2024-01-19T19:08:09,817  INFO QSim:566 SIMULATION (NEW QSim) AT 08:00:00 : #Veh=85 lost=0 simT=6060.0s realT=0s; (s/r): Infinity
2024-01-19T19:08:09,902  INFO AbstractQNetsimEngine:366 SIMULATION (QNetsimEngine) AT 09:00:00 : #links=2 #nodes=3
2024-01-19T19:08:09,902  INFO QSim:566 SIMULATION (NEW QSim) AT 09:00:00 : #Veh=79 lost=0 simT=9660.0s realT=0s; (s/r): Infinity
2024-01-19T19:08:09,981  INFO AbstractQNetsimEngine:366 SIMULATION (QNetsimEngine) AT 10:00:00 : #links=3 #nodes=0
2024-01-19T19:08:09,981  INFO QSim:566 SIMULATION (NEW QSim) AT 10:00:00 : #Veh=73 lost=0 simT=13260.0s realT=0s; (s/r): Infinity
2024-01-19T19:08:10,059  INFO AbstractQNetsimEngine:366 SIMULATION (QNetsimEngine) AT 11:00:00 : #links=0 #nodes=1
2024-01-19T19:08:10,060  INFO QSim:566 SIMULATION (NEW QSim) AT 11:00:00 : #Veh=69 lost=0 simT=16860.0s realT=0s; (s/r): Infinity
2024-01-19T19:08:10,135  INFO AbstractQNetsimEngine:366 SIMULATION (QNetsimEngine) AT 12:00:00 : #links=0 #nodes=2
2024-01-19T19:08:10,135  INFO QSim:566 SIMULATION (NEW QSim) AT 12:00:00 : #Veh=66 lost=0 simT=20460.0s realT=0s; (s/r): Infinity
2024-01-19T19:08:10,212  INFO AbstractQNetsimEngine:366 SIMULATION (QNetsimEngine) AT 13:00:00 : #links=0 #nodes=2
2024-01-19T19:08:10,212  INFO QSim:566 SIMULATION (NEW QSim) AT 13:00:00 : #Veh=63 lost=0 simT=24060.0s realT=0s; (s/r): Infinity
2024-01-19T19:08:10,288  INFO AbstractQNetsimEngine:366 SIMULATION (QNetsimEngine) AT 14:00:00 : #links=0 #nodes=1
2024-01-19T19:08:10,288  INFO QSim:566 SIMULATION (NEW QSim) AT 14:00:00 : #Veh=59 lost=0 simT=27660.0s realT=0s; (s/r): Infinity
2024-01-19T19:08:10,359  INFO AbstractQNetsimEngine:366 SIMULATION (QNetsimEngine) AT 15:00:00 : #links=0 #nodes=2
2024-01-19T19:08:10,359  INFO QSim:566 SIMULATION (NEW QSim) AT 15:00:00 : #Veh=57 lost=0 simT=31260.0s realT=0s; (s/r): Infinity
2024-01-19T19:08:10,430  INFO AbstractQNetsimEngine:366 SIMULATION (QNetsimEngine) AT 16:00:00 : #links=1 #nodes=1
2024-01-19T19:08:10,430  INFO QSim:566 SIMULATION (NEW QSim) AT 16:00:00 : #Veh=55 lost=0 simT=34860.0s realT=0s; (s/r): Infinity
2024-01-19T19:08:10,503  INFO AbstractQNetsimEngine:366 SIMULATION (QNetsimEngine) AT 17:00:00 : #links=1 #nodes=5
2024-01-19T19:08:10,503  INFO QSim:566 SIMULATION (NEW QSim) AT 17:00:00 : #Veh=51 lost=0 simT=38460.0s realT=1s; (s/r): 38460.0
2024-01-19T19:08:10,580  INFO AbstractQNetsimEngine:366 SIMULATION (QNetsimEngine) AT 18:00:00 : #links=1 #nodes=4
2024-01-19T19:08:10,580  INFO QSim:566 SIMULATION (NEW QSim) AT 18:00:00 : #Veh=42 lost=0 simT=42060.0s realT=1s; (s/r): 42060.0
2024-01-19T19:08:10,657  INFO AbstractQNetsimEngine:366 SIMULATION (QNetsimEngine) AT 19:00:00 : #links=1 #nodes=3
2024-01-19T19:08:10,658  INFO QSim:566 SIMULATION (NEW QSim) AT 19:00:00 : #Veh=34 lost=0 simT=45660.0s realT=1s; (s/r): 45660.0
2024-01-19T19:08:10,732  INFO AbstractQNetsimEngine:366 SIMULATION (QNetsimEngine) AT 20:00:00 : #links=2 #nodes=2
2024-01-19T19:08:10,732  INFO QSim:566 SIMULATION (NEW QSim) AT 20:00:00 : #Veh=27 lost=0 simT=49260.0s realT=1s; (s/r): 49260.0
2024-01-19T19:08:10,810  INFO AbstractQNetsimEngine:366 SIMULATION (QNetsimEngine) AT 21:00:00 : #links=3 #nodes=2
2024-01-19T19:08:10,810  INFO QSim:566 SIMULATION (NEW QSim) AT 21:00:00 : #Veh=19 lost=0 simT=52860.0s realT=1s; (s/r): 52860.0
2024-01-19T19:08:10,883  INFO AbstractQNetsimEngine:366 SIMULATION (QNetsimEngine) AT 22:00:00 : #links=1 #nodes=2
2024-01-19T19:08:10,884  INFO QSim:566 SIMULATION (NEW QSim) AT 22:00:00 : #Veh=13 lost=0 simT=56460.0s realT=1s; (s/r): 56460.0
2024-01-19T19:08:10,963  INFO AbstractQNetsimEngine:366 SIMULATION (QNetsimEngine) AT 23:00:00 : #links=1 #nodes=2
2024-01-19T19:08:10,963  INFO QSim:566 SIMULATION (NEW QSim) AT 23:00:00 : #Veh=9 lost=0 simT=60060.0s realT=1s; (s/r): 60060.0
2024-01-19T19:08:11,042  INFO AbstractQNetsimEngine:366 SIMULATION (QNetsimEngine) AT 24:00:00 : #links=0 #nodes=1
2024-01-19T19:08:11,042  INFO QSim:566 SIMULATION (NEW QSim) AT 24:00:00 : #Veh=6 lost=0 simT=63660.0s realT=1s; (s/r): 63660.0
2024-01-19T19:08:11,116  INFO AbstractQNetsimEngine:366 SIMULATION (QNetsimEngine) AT 25:00:00 : #links=2 #nodes=2
2024-01-19T19:08:11,116  INFO QSim:566 SIMULATION (NEW QSim) AT 25:00:00 : #Veh=4 lost=0 simT=67260.0s realT=1s; (s/r): 67260.0
2024-01-19T19:08:11,193  INFO AbstractController$9:235 ### ITERATION 10 fires after mobsim event
2024-01-19T19:08:11,193  INFO ControlerListenerManagerImpl:249 calling notifyAfterMobsim on org.matsim.analysis.LegTimesControlerListener
2024-01-19T19:08:11,194  INFO LegTimesControlerListener:51 [10] average trip (probably: leg) duration is: 341 seconds = 00:05:41
2024-01-19T19:08:11,194  INFO ControlerListenerManagerImpl:249 calling notifyAfterMobsim on org.matsim.core.events.MobsimScopeEventHandling
2024-01-19T19:08:11,194  INFO ControlerListenerManagerImpl:249 calling notifyAfterMobsim on org.matsim.core.scoring.EventsToActivities$1
2024-01-19T19:08:11,193  INFO Gbl:192 Thread performance: Thread=class org.matsim.core.events.SimStepParallelEventsManagerImpl$ProcessEventsRunnable0  cpu-time=0.285181616sec
2024-01-19T19:08:11,194  INFO ControlerListenerManagerImpl:252 [it.10] all ControlerAfterMobsimListeners called.
2024-01-19T19:08:11,194  INFO AbstractController$4:160 ### ITERATION 10 fires scoring event
2024-01-19T19:08:11,194  INFO ControlerListenerManagerImpl:184 calling notifyScoring on org.matsim.core.scoring.PlansScoringImpl
2024-01-19T19:08:11,194  INFO NewScoreAssignerImpl:58 it: 10 msaStart: null
2024-01-19T19:08:11,194  INFO ControlerListenerManagerImpl:195 [it.10] all ControlerScoringListeners called.
2024-01-19T19:08:11,194  INFO AbstractController$5:168 ### ITERATION 10 fires iteration end event
2024-01-19T19:08:11,194  INFO ControlerListenerManagerImpl:161 calling notifyIterationEnds on org.matsim.core.controler.corelisteners.EventsHandlingImpl
2024-01-19T19:08:11,196  INFO EventsManagerImpl:159 removing Event-Handler: org.matsim.core.events.algorithms.EventWriterXML
2024-01-19T19:08:11,196  INFO EventsManagerImpl:159 removing Event-Handler: org.matsim.core.events.algorithms.EventWriterXML
2024-01-19T19:08:11,196  INFO ControlerListenerManagerImpl:161 calling notifyIterationEnds on org.matsim.core.scoring.PlansScoringImpl
2024-01-19T19:08:11,196  INFO ControlerListenerManagerImpl:168 calling notifyIterationEnds on org.matsim.counts.CountsControlerListener
2024-01-19T19:08:11,205  INFO CountSimComparisonTableWriter:94 Writing CountsSimComparison to ./../output/ITERS/it.10/10.countscompare.txt
2024-01-19T19:08:11,206  INFO CountSimComparisonTableWriter:135 Writing 'average weekday traffic volume' to ./../output/ITERS/it.10/10.countscompareAWTV.txt
2024-01-19T19:08:11,207  INFO ControlerListenerManagerImpl:168 calling notifyIterationEnds on org.matsim.analysis.ModeStatsControlerListener
2024-01-19T19:08:11,208  INFO ModeStatsControlerListener:145 Mode shares over all 3.0 trips found. MainModeIdentifier: class org.matsim.core.router.RoutingModeMainModeIdentifier
2024-01-19T19:08:11,208  INFO ModeStatsControlerListener:152 -- mode share of mode car = 1.0
2024-01-19T19:08:11,208  INFO ModeStatsControlerListener:152 -- mode share of mode subway = 0.0
2024-01-19T19:08:11,265  INFO ControlerListenerManagerImpl:168 calling notifyIterationEnds on org.matsim.analysis.ScoreStatsControlerListener
2024-01-19T19:08:11,265  INFO ScoreStatsControlerListener:182 -- avg. score of the executed plan of each agent: 57.04392107630676
2024-01-19T19:08:11,265  INFO ScoreStatsControlerListener:183 -- avg. score of the worst plan of each agent: -108.67020078573192
2024-01-19T19:08:11,265  INFO ScoreStatsControlerListener:184 -- avg. of the avg. plan score per agent: 1.6754954403004614
2024-01-19T19:08:11,265  INFO ScoreStatsControlerListener:185 -- avg. score of the best plan of each agent: 57.04392107630676
2024-01-19T19:08:11,290  INFO ControlerListenerManagerImpl:168 calling notifyIterationEnds on org.matsim.analysis.IterationTravelStatsControlerListener
2024-01-19T19:08:11,291  INFO TravelDistanceStats:144 -- average leg distance per plan (executed plans only): 5527.593242431492 meters
2024-01-19T19:08:11,291  INFO TravelDistanceStats:145 average leg distance per Person (executed plans only): 16582.779727294477 meters (statistic on all 3 legs which have a finite distance)
2024-01-19T19:08:11,291  INFO TravelDistanceStats:146 -- average trip distance per plan (executed plans only): 5527.593242431492 meters
2024-01-19T19:08:11,291  INFO TravelDistanceStats:147 average trip distance per Person (executed plans only): 16582.779727294477 meters (statistic on all 3 trips which have a finite distance)
2024-01-19T19:08:11,291  INFO TravelDistanceStats:148 (TravelDistanceStats takes an average over all legs where the simulation reports travelled (network) distances
2024-01-19T19:08:11,291  INFO TravelDistanceStats:149 (and teleported legs whose route contains a distance.)
2024-01-19T19:08:11,406  INFO ControlerListenerManagerImpl:168 calling notifyIterationEnds on org.matsim.analysis.LegHistogramListener
2024-01-19T19:08:11,407  INFO LegHistogramListener:73 number of legs:	3	100%
2024-01-19T19:08:11,407  INFO LegHistogramListener:80 number of car legs:	3	100.0%
2024-01-19T19:08:11,467  INFO ControlerListenerManagerImpl:168 calling notifyIterationEnds on org.matsim.analysis.LinkStatsControlerListener
2024-01-19T19:08:11,468  INFO ControlerListenerManagerImpl:172 [it.10] all ControlerIterationEndsListeners called.
2024-01-19T19:08:11,509  INFO AbstractController:182 ### ITERATION 10 ENDS
2024-01-19T19:08:11,510  INFO AbstractController:183 ###################################################
2024-01-19T19:08:11,510  INFO MatsimRuntimeModifications:80 S H U T D O W N   ---   start shutdown.
2024-01-19T19:08:11,510  INFO ControlerListenerManagerImpl:122 calling notifyShutdown on org.matsim.core.controler.corelisteners.EventsHandlingImpl
2024-01-19T19:08:11,510  INFO ControlerListenerManagerImpl:122 calling notifyShutdown on org.matsim.core.controler.corelisteners.DumpDataAtEndImpl
2024-01-19T19:08:11,533  INFO Counter:70 [PopulationWriter] dumped person # 1
2024-01-19T19:08:11,533  INFO PopulationWriter:145 Population written to: ./../output/output_plans.xml.gz
2024-01-19T19:08:11,533  INFO Counter:75 [PopulationWriter] dumped person # 1
2024-01-19T19:08:11,534  INFO NetworkWriter:70 Writing network to file: ./../output/output_network.xml.gz...
2024-01-19T19:08:12,175  INFO NetworkWriter:73 done.
2024-01-19T19:08:12,181  INFO Config:602 setting context to [file:/home/iohan/Documentos/FEUP/MAMS/OpenOPorto/input/]
2024-01-19T19:08:12,183  INFO Config:602 setting context to [file:/home/iohan/Documentos/FEUP/MAMS/OpenOPorto/input/]
2024-01-19T19:08:12,185  INFO Config:602 setting context to [file:/home/iohan/Documentos/FEUP/MAMS/OpenOPorto/input/]
2024-01-19T19:08:12,188  INFO Config:602 setting context to [file:/home/iohan/Documentos/FEUP/MAMS/OpenOPorto/input/]
2024-01-19T19:08:12,192  INFO Config:602 setting context to [file:/home/iohan/Documentos/FEUP/MAMS/OpenOPorto/input/]
2024-01-19T19:08:12,201  INFO Config:602 setting context to [file:/home/iohan/Documentos/FEUP/MAMS/OpenOPorto/input/]
2024-01-19T19:08:12,204  INFO Config:602 setting context to [file:/home/iohan/Documentos/FEUP/MAMS/OpenOPorto/input/]
2024-01-19T19:08:12,207  INFO Config:602 setting context to [file:/home/iohan/Documentos/FEUP/MAMS/OpenOPorto/input/]
2024-01-19T19:08:12,211  INFO Config:602 setting context to [file:/home/iohan/Documentos/FEUP/MAMS/OpenOPorto/input/]
2024-01-19T19:08:12,215  INFO Config:602 setting context to [file:/home/iohan/Documentos/FEUP/MAMS/OpenOPorto/input/]
2024-01-19T19:08:12,217  INFO Config:602 setting context to [file:/home/iohan/Documentos/FEUP/MAMS/OpenOPorto/input/]
2024-01-19T19:08:12,220  INFO Config:602 setting context to [file:/home/iohan/Documentos/FEUP/MAMS/OpenOPorto/input/]
2024-01-19T19:08:12,223  INFO Config:602 setting context to [file:/home/iohan/Documentos/FEUP/MAMS/OpenOPorto/input/]
2024-01-19T19:08:12,226  INFO Config:602 setting context to [file:/home/iohan/Documentos/FEUP/MAMS/OpenOPorto/input/]
2024-01-19T19:08:12,239  INFO Config:602 setting context to [file:/home/iohan/Documentos/FEUP/MAMS/OpenOPorto/input/]
2024-01-19T19:08:12,242  INFO Config:602 setting context to [file:/home/iohan/Documentos/FEUP/MAMS/OpenOPorto/input/]
2024-01-19T19:08:12,247  INFO Config:602 setting context to [file:/home/iohan/Documentos/FEUP/MAMS/OpenOPorto/input/]
2024-01-19T19:08:12,253  INFO Config:602 setting context to [file:/home/iohan/Documentos/FEUP/MAMS/OpenOPorto/input/]
2024-01-19T19:08:12,266  INFO Config:602 setting context to [file:/home/iohan/Documentos/FEUP/MAMS/OpenOPorto/input/]
2024-01-19T19:08:12,267  INFO Config:602 setting context to [file:/home/iohan/Documentos/FEUP/MAMS/OpenOPorto/input/]
2024-01-19T19:08:12,276  INFO Config:602 setting context to [file:/home/iohan/Documentos/FEUP/MAMS/OpenOPorto/input/]
2024-01-19T19:08:12,277  INFO Config:602 setting context to [file:/home/iohan/Documentos/FEUP/MAMS/OpenOPorto/input/]
2024-01-19T19:08:12,280  INFO Config:602 setting context to [file:/home/iohan/Documentos/FEUP/MAMS/OpenOPorto/input/]
2024-01-19T19:08:12,285  INFO Config:602 setting context to [file:/home/iohan/Documentos/FEUP/MAMS/OpenOPorto/input/]
2024-01-19T19:08:12,289  INFO Config:602 setting context to [file:/home/iohan/Documentos/FEUP/MAMS/OpenOPorto/input/]
2024-01-19T19:08:12,294  INFO Config:602 setting context to [file:/home/iohan/Documentos/FEUP/MAMS/OpenOPorto/input/]
2024-01-19T19:08:12,298  INFO Config:602 setting context to [file:/home/iohan/Documentos/FEUP/MAMS/OpenOPorto/input/]
2024-01-19T19:08:12,310  INFO TransitScheduleWriter:88 about to write transit schedule to: ./../output/output_transitSchedule.xml.gz
2024-01-19T19:08:12,321  INFO MatsimVehicleWriter:55 about to write vehicles to: ./../output/output_transitVehicles.xml.gz
2024-01-19T19:08:12,321  INFO VehicleWriterV2:64 about to write vehicles to: ./../output/output_transitVehicles.xml.gz
2024-01-19T19:08:12,330  INFO MatsimVehicleWriter:55 about to write vehicles to: ./../output/output_vehicles.xml.gz
2024-01-19T19:08:12,330  INFO VehicleWriterV2:64 about to write vehicles to: ./../output/output_vehicles.xml.gz
2024-01-19T19:08:12,331  INFO MatsimVehicleWriter:55 about to write vehicles to: ./../output/output_allVehicles.xml.gz
2024-01-19T19:08:12,331  INFO VehicleWriterV2:64 about to write vehicles to: ./../output/output_allVehicles.xml.gz
2024-01-19T19:08:12,337  INFO HouseholdsWriterV10:67 about to write  households to: ./../output/output_households.xml.gz
2024-01-19T19:08:12,340  INFO Counter:75 [HouseholdsWriter] wrote household # 0
2024-01-19T19:08:12,351  INFO ControlerListenerManagerImpl:127 calling notifyShutdown on org.matsim.analysis.ScoreStatsControlerListener
2024-01-19T19:08:12,351  INFO ControlerListenerManagerImpl:127 calling notifyShutdown on org.matsim.analysis.IterationTravelStatsControlerListener
2024-01-19T19:08:12,352  INFO IterationTravelStatsControlerListener:109 Writing all Person and Attributes to personscsv
2024-01-19T19:08:12,353  INFO IterationTravelStatsControlerListener:153 ...done
2024-01-19T19:08:12,353  INFO ControlerListenerManagerImpl:130 all ControlerShutdownListeners called.
2024-01-19T19:08:12,354  INFO MatsimRuntimeModifications:103 S H U T D O W N   ---   shutdown completed.
2024-01-19T19:08:12,354  INFO OutputDirectoryLogging:171 closing the logfile, i.e. messages sent to the logger after this message are not written to the logfile.
