2024-01-19T19:36:11,462  INFO Gbl:64 JVM: 17.0.9; JetBrains s.r.o.; mixed mode; 64-bit
2024-01-19T19:36:11,463  INFO Gbl:68 OS: Linux; 6.5.0-14-generic; amd64
2024-01-19T19:36:11,463  INFO Gbl:71 CPU cores: 8
2024-01-19T19:36:11,468  INFO Gbl:72 max. Memory: 1024.0MB (1073741824B)
2024-01-19T19:36:11,471  INFO Gbl:110 MATSim-Build: ra76d70e12c1ca93f702007bdf2cc365001d5f50e (2023-04-12 08:36:22)
2024-01-19T19:36:11,480  INFO ControlerListenerManagerImpl:108 calling notifyStartup on org.matsim.core.controler.ControlerDefaultsModule$1
2024-01-19T19:36:11,481  INFO MemoryObserver:42 used RAM: 187 MB  free: 136 MB  total: 323 MB
2024-01-19T19:36:11,534  INFO ControlerListenerManagerImpl:108 calling notifyStartup on org.matsim.guice.DependencyGraphControlerListener
2024-01-19T19:36:11,621  INFO ControlerListenerManagerImpl:108 calling notifyStartup on org.matsim.counts.CountsControlerListener
2024-01-19T19:36:11,622  INFO ControlerListenerManagerImpl:108 calling notifyStartup on org.matsim.analysis.ModeStatsControlerListener
2024-01-19T19:36:11,622  INFO ControlerListenerManagerImpl:108 calling notifyStartup on org.matsim.analysis.ScoreStatsControlerListener
2024-01-19T19:36:11,622  INFO ControlerListenerManagerImpl:111 all ControlerStartupListeners called.
2024-01-19T19:36:11,624  INFO ControlerUtils:80 config dump before iterations start
2024-01-19T19:36:11,641  INFO ControlerUtils:84 

<?xml version="1.0" encoding="UTF-8"?>
<!DOCTYPE config SYSTEM "http://www.matsim.org/files/dtd/config_v2.dtd">
<config>
	<module name="JDEQSim" >
		<param name="carSize" value="7.5" />
		<param name="endTime" value="undefined" />
		<param name="flowCapacityFactor" value="1.0" />
		<param name="gapTravelSpeed" value="15.0" />
		<param name="minimumInFlowCapacity" value="1800.0" />
		<param name="squeezeTime" value="1800.0" />
		<param name="storageCapacityFactor" value="1.0" />
	</module>
	<module name="ReplanningAnnealer" >
		<!-- Activate the scaling of replanning modules using an annealing approach rather than fixed rates. -->
		<param name="activateAnnealingModule" value="false" />
	</module>
	<module name="TimeAllocationMutator" >
		<!-- Default:true; Defines whether time mutation changes an activity's duration. -->
		<param name="mutationAffectsDuration" value="true" />
		<!-- Default:1800.0; Defines how many seconds a time mutation can maximally shift a time. -->
		<param name="mutationRange" value="1800.0" />
	</module>
	<module name="changeMode" >
		<!-- Defines whether car availability is considered be considered or not. An agent has no car only if it has no license, or never access to a car. Default: true -->
		<param name="ignoreCarAvailability" value="true" />
		<!-- Defines the mode switch behavior. Possible values [fromAllModesToSpecifiedModes, fromSpecifiedModesToSpecifiedModes] Default: fromSpecifiedModesToSpecifiedModes. -->
		<param name="modeSwitchBehavior" value="fromSpecifiedModesToSpecifiedModes" />
		<!-- Defines all the modes available, including chain-based modes, seperated by commas -->
		<param name="modes" value="car,subway" />
	</module>
	<module name="controler" >
		<!-- Defines what should be done with the ITERS directory when a simulation finished successfully -->
		<param name="cleanItersAtEnd" value="keep" />
		<!-- Compression algorithm to use when writing out data to files. Possible values: [none, gzip, lz4, zst] -->
		<param name="compressionType" value="gzip" />
		<!-- Sets whether graphs showing some analyses should automatically be generated during the simulation. The generation of graphs usually takes a small amount of time that does not have any weight in big simulations, but add a significant overhead in smaller runs or in test cases where the graphical output is not even requested. -->
		<param name="createGraphs" value="true" />
		<!-- Defines when the scoring functions for the population are created. Default=IterationStarts. Possible values: [IterationStarts, BeforeMobsim] -->
		<param name="createScoringFunctionType" value="IterationStarts" />
		<!-- true if at the end of a run, plans, network, config etc should be dumped to a file -->
		<param name="dumpDataAtEnd" value="true" />
		<!-- Default=false. If enabled, the router takes travel times needed for turning moves into account. Cannot be used if the (Fast)AStarLandmarks routing or TravelTimeCalculator.separateModes is enabled. -->
		<param name="enableLinkToLinkRouting" value="false" />
		<!-- Default=xml; Specifies the file format for writing events. Currently supported: [xml, pb, json]
		Multiple values can be specified separated by commas (','). -->
		<param name="eventsFileFormat" value="xml" />
		<!-- Default=0. First Iteration of a simulation. -->
		<param name="firstIteration" value="0" />
		<!-- Default=1000. Last Iteration of a simulation. -->
		<param name="lastIteration" value="10" />
		<!-- Defines which mobility simulation will be used. Currently supported: qsim JDEQSim hermes 
		Depending on the chosen mobsim, you'll have to add additional config modules to configure the corresponding mobsim.
		For 'qsim', add a module 'qsim' to the config. -->
		<param name="mobsim" value="qsim" />
		<param name="outputDirectory" value="./../output" />
		<!-- Possible values: failIfDirectoryExists,overwriteExistingFiles,deleteDirectoryIfExists -->
		<param name="overwriteFiles" value="deleteDirectoryIfExists" />
		<!-- The type of routing (least cost path) algorithm used, may have the values: [Dijkstra, AStarLandmarks, FastDijkstra, FastAStarLandmarks, SpeedyALT] -->
		<param name="routingAlgorithmType" value="AStarLandmarks" />
		<!-- An identifier for the current run which is used as prefix for output files and mentioned in output xml files etc. -->
		<param name="runId" value="null" />
		<!-- Comma-separated list of visualizer output file formats. `transims' and `otfvis'. -->
		<param name="snapshotFormat" value="" />
		<!-- iterationNumber % writeEventsInterval == 0 defines in which iterations events are written to a file. `0' disables events writing completely. -->
		<param name="writeEventsInterval" value="50" />
		<!-- iterationNumber % writePlansInterval == 0 defines (hopefully) in which iterations plans are written to a file. `0' disables plans writing completely.  Some plans in early iterations are always written -->
		<param name="writePlansInterval" value="50" />
		<!-- iterationNumber % writeSnapshotsInterval == 0 defines in which iterations snapshots are written to a file. `0' disables snapshots writing completely -->
		<param name="writeSnapshotsInterval" value="1" />
		<!-- iterationNumber % writeEventsInterval == 0 defines in which iterations trips CSV are written to a file. `0' disables trips writing completely. -->
		<param name="writeTripsInterval" value="50" />
	</module>
	<module name="counts" >
		<!-- Transport modes that will be respected for the counts comparison. 'car' is default, which includes also bussed from the pt simulation module. Use this parameter in combination with 'filterModes' = true! -->
		<param name="analyzedModes" value="car" />
		<!-- Specifies over how many iterations the link volumes should be averaged that are used for the counts comparison. Use 1 or 0 to only use the link volumes of a single iteration. This values cannot be larger than the value specified for writeCountsInterval -->
		<param name="averageCountsOverIterations" value="5" />
		<!-- factor by which to re-scale the simulated values.  necessary when simulation runs with something different from 100%.  needs to be adapted manually -->
		<param name="countsScaleFactor" value="1.0" />
		<!-- distance to distanceFilterCenterNode to include counting stations. The unit of distance is the Euclidean distance implied by the coordinate system -->
		<param name="distanceFilter" value="null" />
		<!-- node id for center node of distance filter -->
		<param name="distanceFilterCenterNode" value="null" />
		<!-- If true, link counts from legs performed on modes not included in the 'analyzedModes' parameter are ignored. -->
		<param name="filterModes" value="false" />
		<!-- The Coordinates Reference System in which the coordinates are expressed in the input file. At import, the coordinates will be converted to the coordinate system defined in "global", and willbe converted back at export. If not specified, no conversion happens. -->
		<param name="inputCRS" value="null" />
		<!-- input file name to counts package -->
		<param name="inputCountsFile" value="null" />
		<!-- possible values: `html', `txt', `all' -->
		<param name="outputformat" value="txt" />
		<!-- Specifies how often the counts comparison should be calculated and written. -->
		<param name="writeCountsInterval" value="10" />
	</module>
	<module name="facilities" >
		<!-- This defines how facilities should be created. Possible values: none fromFile setInScenario onePerActivityLinkInPlansFile onePerActivityLinkInPlansFileExceptWhenCoordinatesAreGiven onePerActivityLocationInPlansFile  -->
		<param name="facilitiesSource" value="none" />
		<!-- A prefix to be used for auto-generated IDs. -->
		<param name="idPrefix" value="f_auto_" />
		<!-- The Coordinates Reference System in which the coordinates are expressed in the input file. At import, the coordinates will be converted to the coordinate system defined in "global", and willbe converted back at export. If not specified, no conversion happens. -->
		<param name="inputCRS" value="null" />
		<param name="inputFacilitiesFile" value="null" />
		<param name="inputFacilityAttributesFile" value="null" />
		<param name="insistingOnUsingDeprecatedFacilitiesAttributeFile" value="false" />
	</module>
	<module name="global" >
		<param name="coordinateSystem" value="Atlantis" />
		<param name="defaultDelimiter" value=";" />
		<param name="insistingOnDeprecatedConfigVersion" value="true" />
		<!-- "global" number of threads.  This number is used, e.g., for replanning, but NOT in QSim.  This can typically be set to as many cores as you have available, or possibly even slightly more. -->
		<param name="numberOfThreads" value="2" />
		<param name="randomSeed" value="4711" />
	</module>
	<module name="hermes" >
		<!-- Simulation End Time -->
		<param name="endTime" value="30:00:00" />
		<param name="flowCapacityFactor" value="1.0" />
		<param name="mainMode" value="car" />
		<param name="storageCapacityFactor" value="1.0" />
		<!-- time in seconds.  Time after which the frontmost vehicle on a link is called `stuck' if it does not move. Set to Integer.MAX_VALUE to disable this behavior -->
		<param name="stuckTime" value="10" />
		<!-- treats PT as deterministic. PT vehicles will run with a steady speed. Should be used with separate network layers for PT and other network modes. -->
		<param name="useDeterministicPt" value="false" />
	</module>
	<module name="households" >
		<param name="inputFile" value="null" />
		<param name="inputHouseholdAttributesFile" value="null" />
		<param name="insistingOnUsingDeprecatedHouseholdsAttributeFile" value="false" />
	</module>
	<module name="linkStats" >
		<!-- Specifies over how many iterations the link volumes should be averaged that are used for the link statistics. Use 1 or 0 to only use the link volumes of a single iteration. This values cannot be larger than the value specified for writeLinkStatsInterval -->
		<param name="averageLinkStatsOverIterations" value="5" />
		<!-- Specifies how often the link stats should be calculated and written. Use 0 to disable the generation of link stats. -->
		<param name="writeLinkStatsInterval" value="50" />
	</module>
	<module name="network" >
		<!-- The Coordinates Reference System in which the coordinates are expressed in the input file. At import, the coordinates will be converted to the coordinate system defined in "global", and willbe converted back at export. If not specified, no conversion happens. -->
		<param name="inputCRS" value="null" />
		<param name="inputChangeEventsFile" value="null" />
		<param name="inputNetworkFile" value="network.xml" />
		<param name="laneDefinitionsFile" value="null" />
		<param name="timeVariantNetwork" value="false" />
	</module>
	<module name="parallelEventHandling" >
		<!-- Estimated number of events during mobsim run. An optional optimization hint for the framework. -->
		<param name="estimatedNumberOfEvents" value="null" />
		<!-- Size of the events Queue. Increase for very large scenarios -->
		<param name="eventsQueueSize" value="131072" />
		<!-- Number of threads for parallel events handler. _null_ means the framework decides by itself. 0 is currently not possible. -->
		<param name="numberOfThreads" value="null" />
		<!-- If enabled, each event handler is assigned to its own thread. Note that enabling this feature disabled the numberOfThreads option! This feature is still experimental! -->
		<param name="oneThreadPerHandler" value="false" />
		<!-- If enabled, it is ensured that all events that are created during a time step of the mobility simulation are processed before the next time step is simulated. E.g. neccessary when within-day replanning is used. -->
		<param name="synchronizeOnSimSteps" value="true" />
	</module>
	<module name="planCalcScore" >
		<!-- logit model scale parameter. default: 1.  Has name and default value for historical reasons (see Bryan Raney's phd thesis). -->
		<param name="BrainExpBeta" value="2.0" />
		<param name="PathSizeLogitBeta" value="1.0" />
		<!-- fraction of iterations at which MSA score averaging is started. The matsim theory department suggests to use this together with switching off choice set innovation (where a similar switch exists), but it has not been tested yet. -->
		<param name="fractionOfIterationsToStartScoreMSA" value="null" />
		<!-- new_score = (1-learningRate)*old_score + learningRate * score_from_mobsim.  learning rates close to zero emulate score averaging, but slow down initial convergence -->
		<param name="learningRate" value="1.0" />
		<!-- There used to be a plateau between duration=0 and duration=zeroUtilityDuration. This caused durations to evolve to zero once they were below zeroUtilityDuration, causing problems.  Only use this switch if you need to be backwards compatible with some old results.  (changed nov'13) -->
		<param name="usingOldScoringBelowZeroUtilityDuration" value="false" />
		<!-- write a plans file in each iteration directory which contains what each agent actually did, and the score it received. -->
		<param name="writeExperiencedPlans" value="false" />
		<parameterset type="scoringParameters" >
			<param name="earlyDeparture" value="-0.0" />
			<param name="lateArrival" value="-18.0" />
			<param name="marginalUtilityOfMoney" value="1.0" />
			<param name="performing" value="6.0" />
			<param name="subpopulation" value="null" />
			<param name="utilityOfLineSwitch" value="-1.0" />
			<param name="waiting" value="-0.0" />
			<param name="waitingPt" value="-6.0" />
			<parameterset type="activityParams" >
				<param name="activityType" value="dummy" />
				<param name="closingTime" value="undefined" />
				<param name="earliestEndTime" value="undefined" />
				<param name="latestStartTime" value="undefined" />
				<param name="minimalDuration" value="undefined" />
				<param name="openingTime" value="undefined" />
				<param name="priority" value="1.0" />
				<param name="scoringThisActivityAtAll" value="true" />
				<!-- typical duration of activity.  needs to be defined and non-zero.  in sec. -->
				<param name="typicalDuration" value="02:00:00" />
				<!-- method to compute score at typical duration.  Options: | uniform | relative | Use uniform for backwards compatibility (all activities same score; higher proba to drop long acts). -->
				<param name="typicalDurationScoreComputation" value="relative" />
			</parameterset>
			<parameterset type="activityParams" >
				<param name="activityType" value="car interaction" />
				<param name="closingTime" value="undefined" />
				<param name="earliestEndTime" value="undefined" />
				<param name="latestStartTime" value="undefined" />
				<param name="minimalDuration" value="undefined" />
				<param name="openingTime" value="undefined" />
				<param name="priority" value="1.0" />
				<param name="scoringThisActivityAtAll" value="false" />
				<param name="typicalDuration" value="undefined" />
				<param name="typicalDurationScoreComputation" value="relative" />
			</parameterset>
			<parameterset type="activityParams" >
				<param name="activityType" value="pt interaction" />
				<param name="closingTime" value="undefined" />
				<param name="earliestEndTime" value="undefined" />
				<param name="latestStartTime" value="undefined" />
				<param name="minimalDuration" value="undefined" />
				<param name="openingTime" value="undefined" />
				<param name="priority" value="1.0" />
				<param name="scoringThisActivityAtAll" value="false" />
				<param name="typicalDuration" value="undefined" />
				<param name="typicalDurationScoreComputation" value="relative" />
			</parameterset>
			<parameterset type="activityParams" >
				<param name="activityType" value="bike interaction" />
				<param name="closingTime" value="undefined" />
				<param name="earliestEndTime" value="undefined" />
				<param name="latestStartTime" value="undefined" />
				<param name="minimalDuration" value="undefined" />
				<param name="openingTime" value="undefined" />
				<param name="priority" value="1.0" />
				<param name="scoringThisActivityAtAll" value="false" />
				<param name="typicalDuration" value="undefined" />
				<param name="typicalDurationScoreComputation" value="relative" />
			</parameterset>
			<parameterset type="activityParams" >
				<param name="activityType" value="drt interaction" />
				<param name="closingTime" value="undefined" />
				<param name="earliestEndTime" value="undefined" />
				<param name="latestStartTime" value="undefined" />
				<param name="minimalDuration" value="undefined" />
				<param name="openingTime" value="undefined" />
				<param name="priority" value="1.0" />
				<param name="scoringThisActivityAtAll" value="false" />
				<param name="typicalDuration" value="undefined" />
				<param name="typicalDurationScoreComputation" value="relative" />
			</parameterset>
			<parameterset type="activityParams" >
				<param name="activityType" value="taxi interaction" />
				<param name="closingTime" value="undefined" />
				<param name="earliestEndTime" value="undefined" />
				<param name="latestStartTime" value="undefined" />
				<param name="minimalDuration" value="undefined" />
				<param name="openingTime" value="undefined" />
				<param name="priority" value="1.0" />
				<param name="scoringThisActivityAtAll" value="false" />
				<param name="typicalDuration" value="undefined" />
				<param name="typicalDurationScoreComputation" value="relative" />
			</parameterset>
			<parameterset type="activityParams" >
				<param name="activityType" value="other interaction" />
				<param name="closingTime" value="undefined" />
				<param name="earliestEndTime" value="undefined" />
				<param name="latestStartTime" value="undefined" />
				<param name="minimalDuration" value="undefined" />
				<param name="openingTime" value="undefined" />
				<param name="priority" value="1.0" />
				<param name="scoringThisActivityAtAll" value="false" />
				<param name="typicalDuration" value="undefined" />
				<param name="typicalDurationScoreComputation" value="relative" />
			</parameterset>
			<parameterset type="activityParams" >
				<param name="activityType" value="walk interaction" />
				<param name="closingTime" value="undefined" />
				<param name="earliestEndTime" value="undefined" />
				<param name="latestStartTime" value="undefined" />
				<param name="minimalDuration" value="undefined" />
				<param name="openingTime" value="undefined" />
				<param name="priority" value="1.0" />
				<param name="scoringThisActivityAtAll" value="false" />
				<param name="typicalDuration" value="undefined" />
				<param name="typicalDurationScoreComputation" value="relative" />
			</parameterset>
			<parameterset type="activityParams" >
				<param name="activityType" value="h" />
				<param name="closingTime" value="undefined" />
				<param name="earliestEndTime" value="undefined" />
				<param name="latestStartTime" value="undefined" />
				<param name="minimalDuration" value="undefined" />
				<param name="openingTime" value="undefined" />
				<param name="priority" value="1.0" />
				<param name="scoringThisActivityAtAll" value="true" />
				<param name="typicalDuration" value="12:00:00" />
				<param name="typicalDurationScoreComputation" value="relative" />
			</parameterset>
			<parameterset type="activityParams" >
				<param name="activityType" value="w" />
				<param name="closingTime" value="18:00:00" />
				<param name="earliestEndTime" value="undefined" />
				<param name="latestStartTime" value="09:00:00" />
				<param name="minimalDuration" value="undefined" />
				<param name="openingTime" value="07:00:00" />
				<param name="priority" value="1.0" />
				<param name="scoringThisActivityAtAll" value="true" />
				<param name="typicalDuration" value="08:00:00" />
				<param name="typicalDurationScoreComputation" value="relative" />
			</parameterset>
			<parameterset type="activityParams" >
				<param name="activityType" value="ride interaction" />
				<param name="closingTime" value="undefined" />
				<param name="earliestEndTime" value="undefined" />
				<param name="latestStartTime" value="undefined" />
				<param name="minimalDuration" value="undefined" />
				<param name="openingTime" value="undefined" />
				<param name="priority" value="1.0" />
				<param name="scoringThisActivityAtAll" value="false" />
				<param name="typicalDuration" value="undefined" />
				<param name="typicalDurationScoreComputation" value="relative" />
			</parameterset>
			<parameterset type="modeParams" >
				<!-- [utils] alternative-specific constant.  Normally per trip, but that is probably buggy for multi-leg trips. -->
				<param name="constant" value="0.0" />
				<!-- [unit_of_money/day] Fixed cost of mode, per day. -->
				<param name="dailyMonetaryConstant" value="0.0" />
				<!-- [utils] daily utility constant. default=0 to be backwards compatible -->
				<param name="dailyUtilityConstant" value="0.0" />
				<!-- [utils/m] utility of traveling (e.g. walking or driving) per m, normally negative.  this is on top of the time (dis)utility. -->
				<param name="marginalUtilityOfDistance_util_m" value="0.0" />
				<!-- [utils/hr] additional marginal utility of traveling.  normally negative.  this comes on top of the opportunity cost of time -->
				<param name="marginalUtilityOfTraveling_util_hr" value="-6.0" />
				<param name="mode" value="car" />
				<!-- [unit_of_money/m] conversion of distance into money. Normally negative. -->
				<param name="monetaryDistanceRate" value="0.0" />
			</parameterset>
			<parameterset type="modeParams" >
				<param name="constant" value="0.0" />
				<param name="dailyMonetaryConstant" value="0.0" />
				<param name="dailyUtilityConstant" value="0.0" />
				<param name="marginalUtilityOfDistance_util_m" value="0.0" />
				<param name="marginalUtilityOfTraveling_util_hr" value="-6.0" />
				<param name="mode" value="pt" />
				<param name="monetaryDistanceRate" value="0.0" />
			</parameterset>
			<parameterset type="modeParams" >
				<param name="constant" value="0.0" />
				<param name="dailyMonetaryConstant" value="0.0" />
				<param name="dailyUtilityConstant" value="0.0" />
				<param name="marginalUtilityOfDistance_util_m" value="0.0" />
				<param name="marginalUtilityOfTraveling_util_hr" value="-6.0" />
				<param name="mode" value="walk" />
				<param name="monetaryDistanceRate" value="0.0" />
			</parameterset>
			<parameterset type="modeParams" >
				<param name="constant" value="0.0" />
				<param name="dailyMonetaryConstant" value="0.0" />
				<param name="dailyUtilityConstant" value="0.0" />
				<param name="marginalUtilityOfDistance_util_m" value="0.0" />
				<param name="marginalUtilityOfTraveling_util_hr" value="-6.0" />
				<param name="mode" value="bike" />
				<param name="monetaryDistanceRate" value="0.0" />
			</parameterset>
			<parameterset type="modeParams" >
				<param name="constant" value="0.0" />
				<param name="dailyMonetaryConstant" value="0.0" />
				<param name="dailyUtilityConstant" value="0.0" />
				<param name="marginalUtilityOfDistance_util_m" value="0.0" />
				<param name="marginalUtilityOfTraveling_util_hr" value="-6.0" />
				<param name="mode" value="ride" />
				<param name="monetaryDistanceRate" value="0.0" />
			</parameterset>
			<parameterset type="modeParams" >
				<param name="constant" value="0.0" />
				<param name="dailyMonetaryConstant" value="0.0" />
				<param name="dailyUtilityConstant" value="0.0" />
				<param name="marginalUtilityOfDistance_util_m" value="0.0" />
				<param name="marginalUtilityOfTraveling_util_hr" value="-6.0" />
				<param name="mode" value="other" />
				<param name="monetaryDistanceRate" value="0.0" />
			</parameterset>
		</parameterset>
	</module>
	<module name="plans" >
		<!-- String: minOfDurationAndEndTime tryEndTimeThenDuration endTimeOnly. Anything besides minOfDurationAndEndTime will internally use a different (simpler) version of the TimeAllocationMutator. -->
		<param name="activityDurationInterpretation" value="tryEndTimeThenDuration" />
		<!-- Possible values: reject,useMainModeIdentifier -->
		<param name="handlingOfPlansWithoutRoutingMode" value="reject" />
		<!-- The Coordinates Reference System in which the coordinates are expressed in the input file. At import, the coordinates will be converted to the coordinate system defined in "global", and willbe converted back at export. If not specified, no conversion happens. -->
		<param name="inputCRS" value="null" />
		<param name="inputPersonAttributesFile" value="null" />
		<param name="inputPlansFile" value="plans1.xml" />
		<param name="insistingOnUsingDeprecatedPersonAttributeFile" value="false" />
		<!-- Defines how routes are stored in memory. Currently supported: LinkNetworkRoute, MediumCompressedNetworkRoute, HeavyCompressedNetworkRoute. -->
		<param name="networkRouteType" value="LinkNetworkRoute" />
		<!-- (not tested) will remove plan attributes that are presumably not used, such as activityStartTime. default=false. Use with Caution! -->
		<param name="removingUnnecessaryPlanAttributes" value="false" />
		<!-- Defines how departure times are interpreted in rerouting applications. If set to 'ignoreDelays', the departure time of a trip when routing along a plan will always be the nominal (plan-based) activity end time. If set to 'shiftActivityEndTimes', routing along a plan will accumulate travel times and shift activity end times if necessary -->
		<param name="tripDurationHandling" value="ignoreDelays" />
	</module>
	<module name="planscalcroute" >
		<!-- Defines how access and egress to main mode is simulated. Either of [none, accessEgressModeToLink, walkConstantTimeToLink, accessEgressModeToLinkPlusTimeConstant], Current default=none which means no access or egress trips are simulated. -->
		<param name="accessEgressType" value="none" />
		<!-- Some typical teleportation routing params are set by default, such as for walk and bike.  Setting this switch to "true" will clear them.  Note that this will also clear settings for helper modes such as for non_network_walk -->
		<param name="clearDefaultTeleportedModeParams" value="false" />
		<!-- All the modes for which the router is supposed to generate network routes (like car) -->
		<param name="networkModes" value="car" />
		<!-- strength of the randomness for the utility of money in routing under toll.  Leads to Pareto-optimal route with randomly drawn money-vs-other-attributes tradeoff. Technically the width parameter of a log-normal distribution. 3.0 seems to be a good value.  -->
		<param name="routingRandomness" value="3.0" />
		<parameterset type="teleportedModeParameters" >
			<param name="beelineDistanceFactor" value="1.3" />
			<param name="mode" value="bike" />
			<!-- Free-speed factor for a teleported mode. Travel time = teleportedModeFreespeedFactor * <freespeed car travel time>. Insert a line like this for every such mode. Please do not set teleportedModeFreespeedFactor as well as teleportedModeSpeed for the same mode, but if you do, +teleportedModeFreespeedFactor wins over teleportedModeSpeed. -->
			<param name="teleportedModeFreespeedFactor" value="null" />
			<!-- Speed for a teleported mode. Travel time = (<beeline distance> * beelineDistanceFactor) / teleportedModeSpeed. Insert a line like this for every such mode. -->
			<param name="teleportedModeSpeed" value="4.166666666666667" />
		</parameterset>
		<parameterset type="teleportedModeParameters" >
			<param name="beelineDistanceFactor" value="1.3" />
			<param name="mode" value="walk" />
			<param name="teleportedModeFreespeedFactor" value="null" />
			<param name="teleportedModeSpeed" value="0.8333333333333333" />
		</parameterset>
		<parameterset type="teleportedModeParameters" >
			<param name="beelineDistanceFactor" value="1.3" />
			<param name="mode" value="non_network_walk" />
			<param name="teleportedModeFreespeedFactor" value="null" />
			<param name="teleportedModeSpeed" value="0.8333333333333333" />
		</parameterset>
		<parameterset type="teleportedModeParameters" >
			<param name="beelineDistanceFactor" value="1.3" />
			<param name="mode" value="ride" />
			<param name="teleportedModeFreespeedFactor" value="1.0" />
			<param name="teleportedModeSpeed" value="null" />
		</parameterset>
		<parameterset type="teleportedModeParameters" >
			<param name="beelineDistanceFactor" value="1.3" />
			<param name="mode" value="pt" />
			<param name="teleportedModeFreespeedFactor" value="2.0" />
			<param name="teleportedModeSpeed" value="null" />
		</parameterset>
	</module>
	<module name="ptCounts" >
		<!-- factor by which to re-scale the simulated values.  necessary when simulation runs with something different from 100%.  needs to be adapted manually -->
		<param name="countsScaleFactor" value="1.0" />
		<!-- distance to distanceFilterCenterNode to include counting stations. The unit of distance is the Euclidean distance implied by the coordinate system -->
		<param name="distanceFilter" value="null" />
		<!-- node id for center node of distance filter -->
		<param name="distanceFilterCenterNode" value="null" />
		<!-- input file containing the alighting (getting off) counts for pt -->
		<param name="inputAlightCountsFile" value="null" />
		<!-- input file containing the boarding (getting on) counts for pt -->
		<param name="inputBoardCountsFile" value="null" />
		<!-- input file containing the occupancy counts for pt -->
		<param name="inputOccupancyCountsFile" value="null" />
		<!-- possible values: `html', `txt', `all' -->
		<param name="outputformat" value="null" />
		<!-- every how many iterations (starting with 0) counts comparisons are generated -->
		<param name="ptCountsInterval" value="10" />
	</module>
	<module name="qsim" >
		<param name="endTime" value="00:00:00" />
		<!-- If set to withLinkAttributes snapshots will only be generated for links which include generateSnapshotForLink as attribute key. Default is no filtering. -->
		<param name="filterSnapshots" value="no" />
		<param name="flowCapacityFactor" value="1.0" />
		<!-- decides if waiting vehicles enter the network after or before the already driving vehicles were moved. Default: false -->
		<param name="insertingWaitingVehiclesBeforeDrivingVehicles" value="true" />
		<!-- If link dynamics is set as SeepageQ, set to false if all seep modes should perform seepage. Default is true (better option). -->
		<param name="isRestrictingSeepage" value="true" />
		<!-- If link dynamics is set as SeepageQ, set to true if seep mode do not consumes any space on the link. Default is false. -->
		<param name="isSeepModeStorageFree" value="false" />
		<!-- default: FIFO; options: FIFO PassingQ SeepageQ -->
		<param name="linkDynamics" value="FIFO" />
		<!-- The (initial) width of the links of the network. Use positive floating point values. This is used only for visualisation. -->
		<param name="linkWidth" value="30.0" />
		<!-- [comma-separated list] Defines which modes are congested modes. Technically, these are the modes that the departure handler of the netsimengine handles.  Effective cell size, effective lane width, flow capacity factor, and storage capacity factor need to be set with diligence.  Need to be vehicular modes to make sense. -->
		<param name="mainMode" value="subway,car" />
		<!-- Shortens a link in the visualization, i.e. its start and end point are moved into towards the center. Does not affect traffic flow.  -->
		<param name="nodeOffset" value="0.0" />
		<!-- Number of threads used for the QSim.  Note that this setting is independent from the "global" threads setting.  In contrast to earlier versions, the non-parallel special version is no longer there. -->
		<param name="numberOfThreads" value="1" />
		<!-- Boolean. `true': stuck vehicles are removed, aborting the plan; `false': stuck vehicles are forced into the next link. `false' is probably the better choice. -->
		<param name="removeStuckVehicles" value="false" />
		<!-- If link dynamics is set as SeepageQ, set a seep mode. Default is bike. -->
		<param name="seepMode" value="bike" />
		<!-- Possible values: minOfEndtimeAndMobsimFinished,onlyUseEndtime -->
		<param name="simEndtimeInterpretation" value="null" />
		<!-- Options: maxOfStarttimeAndEarliestActivityEnd onlyUseStarttime  -->
		<param name="simStarttimeInterpretation" value="maxOfStarttimeAndEarliestActivityEnd" />
		<!-- snapshotStyle. One of: equiDist queue withHoles withHolesAndShowHoles kinematicWaves  -->
		<param name="snapshotStyle" value="queue" />
		<param name="snapshotperiod" value="00:00:00" />
		<param name="startTime" value="00:00:00" />
		<param name="storageCapacityFactor" value="1.0" />
		<!-- time in seconds.  Time after which the frontmost vehicle on a link is called `stuck' if it does not move. -->
		<param name="stuckTime" value="10.0" />
		<param name="timeStepSize" value="00:00:01" />
		<!-- options: queue withHoles kinematicWaves  -->
		<param name="trafficDynamics" value="queue" />
		<!-- Set this parameter to true if lanes should be used, false if not. -->
		<param name="useLanes" value="false" />
		<!-- If a route does not reference a vehicle, agents will use the vehicle with the same id as their own. -->
		<param name="usePersonIdForMissingVehicleId" value="true" />
		<!-- If false, the qsim accumulates fractional flows up to one flow unit in every time step.  If true, flows are updated only if an agent wants to enter the link or an agent is added to buffer. Default is true. -->
		<param name="usingFastCapacityUpdate" value="true" />
		<!-- Defines what happens if an agent wants to depart, but the specified vehicle is not available. One of: teleport wait exception  -->
		<param name="vehicleBehavior" value="teleport" />
		<!-- If vehicles should all be the same default vehicle, or come from the vehicles file, or something else.  Possible values:  defaultVehicle modeVehicleTypesFromVehiclesData fromVehiclesData -->
		<param name="vehiclesSource" value="defaultVehicle" />
	</module>
	<module name="strategy" >
		<!-- the external executable will be called with a config file as argument.  This is the pathname to a possible skeleton config, to which additional information will be added.  Can be null. -->
		<param name="ExternalExeConfigTemplate" value="null" />
		<!-- time out value (in seconds) after which matsim will consider the external strategy as failed -->
		<param name="ExternalExeTimeOut" value="3600" />
		<!-- root directory for temporary files generated by the external executable. Provided as a service; I don't think this is used by MATSim. -->
		<param name="ExternalExeTmpFileRootDir" value="null" />
		<!-- fraction of iterations where innovative strategies are switched off.  Something like 0.8 should be good.  E.g. if you run from iteration 400 to iteration 500, innovation is switched off at iteration 480 -->
		<param name="fractionOfIterationsToDisableInnovation" value="Infinity" />
		<!-- maximum number of plans per agent.  ``0'' means ``infinity''.  Currently (2010), ``5'' is a good number -->
		<param name="maxAgentPlanMemorySize" value="0" />
		<!-- strategyName of PlanSelector for plans removal.  Possible defaults: WorstPlanSelector SelectRandom SelectExpBetaForRemoval ChangeExpBetaForRemoval PathSizeLogitSelectorForRemoval . The current default, WorstPlanSelector is not a good choice from a discrete choice theoretical perspective. Alternatives, however, have not been systematically tested. kai, feb'12 -->
		<param name="planSelectorForRemoval" value="WorstPlanSelector" />
		<parameterset type="strategysettings" >
			<!-- iteration after which strategy will be disabled.  most useful for ``innovative'' strategies (new routes, new times, ...). Normally, better use fractionOfIterationsToDisableInnovation -->
			<param name="disableAfterIteration" value="-1" />
			<!-- path to external executable (if applicable) -->
			<param name="executionPath" value="null" />
			<!-- strategyName of strategy.  Possible default names: SelectRandom BestScore KeepLastSelected ChangeExpBeta SelectExpBeta SelectPathSizeLogit      (selectors), ReRouteTimeAllocationMutatorTimeAllocationMutator_ReRouteChangeSingleTripModeChangeTripModeSubtourModeChoice (innovative strategies). -->
			<param name="strategyName" value="BestScore" />
			<!-- subpopulation to which the strategy applies. "null" refers to the default population, that is, the set of persons for which no explicit subpopulation is defined (ie no subpopulation attribute) -->
			<param name="subpopulation" value="null" />
			<!-- weight of a strategy: for each agent, a strategy will be selected with a probability proportional to its weight -->
			<param name="weight" value="0.8" />
		</parameterset>
		<parameterset type="strategysettings" >
			<param name="disableAfterIteration" value="-1" />
			<param name="executionPath" value="null" />
			<param name="strategyName" value="ReRoute" />
			<param name="subpopulation" value="null" />
			<param name="weight" value="0.1" />
		</parameterset>
		<parameterset type="strategysettings" >
			<param name="disableAfterIteration" value="-1" />
			<param name="executionPath" value="null" />
			<param name="strategyName" value="ChangeTripMode" />
			<param name="subpopulation" value="null" />
			<param name="weight" value="0.1" />
		</parameterset>
	</module>
	<module name="subtourModeChoice" >
		<!-- Only for backwards compatibility.  Defines if only trips from modes list should change mode, or all trips.  Options: fromAllModesToSpecifiedModes fromSpecifiedModesToSpecifiedModes betweenAllAndFewerConstraints  -->
		<param name="behavior" value="fromSpecifiedModesToSpecifiedModes" />
		<!-- Defines the chain-based modes, seperated by commas -->
		<param name="chainBasedModes" value="car,bike" />
		<!-- Defines whether car availability must be considered or not. A agent has no car only if it has no license, or never access to a car -->
		<param name="considerCarAvailability" value="false" />
		<!-- If greater than 0, subtours will also consider coordinates to be at the same location when smaller than set distance. -->
		<param name="coordDistance" value="0.0" />
		<!-- Defines all the modes available, including chain-based modes, seperated by commas -->
		<param name="modes" value="car,pt,bike,walk" />
		<!-- Defines the probability of changing a single trip for a unchained mode instead of subtour. -->
		<param name="probaForRandomSingleTripMode" value="0.0" />
	</module>
	<module name="swissRailRaptor" >
		<!-- Sets whether intermodal access and egress modes are selected by least cost (default) or randomly chosen out of the available access / egress modes. -->
		<param name="intermodalAccessEgressModeSelection" value="CalcLeastCostModePerStop" />
		<!-- Possible values: Default,Individual -->
		<param name="scoringParameters" value="Default" />
		<param name="transferPenaltyBaseCost" value="0.0" />
		<param name="transferPenaltyCostPerTravelTimeHour" value="0.0" />
		<param name="transferPenaltyMaxCost" value="Infinity" />
		<param name="transferPenaltyMinCost" value="-Infinity" />
		<!-- time deducted from transfer walk leg during transfers between pt legs in order to avoid missing a vehicle by a few seconds due to delays. -->
		<param name="transferWalkMargin" value="5.0" />
		<!-- If true, SwissRailRaptor tries to detect when agents cannot board a vehicle in the previous iteration because it is already full and tries to find an alternative route instead. -->
		<param name="useCapacityConstraints" value="false" />
		<param name="useIntermodalAccessEgress" value="false" />
		<param name="useModeMappingForPassengers" value="false" />
		<param name="useRangeQuery" value="false" />
	</module>
	<module name="transit" >
		<!-- The Coordinates Reference System in which the coordinates are expressed in the input file. At import, the coordinates will be converted to the coordinate system defined in "global", and willbe converted back at export. If not specified, no conversion happens. -->
		<param name="inputScheduleCRS" value="null" />
		<param name="insistingOnUsingDeprecatedAttributeFiles" value="false" />
		<!-- The type of transit routing algorithm used, may have the values: [DijkstraBased, SwissRailRaptor] -->
		<param name="routingAlgorithmType" value="SwissRailRaptor" />
		<!-- Optional input file containing additional attributes for transit lines, stored as ObjectAttributes. -->
		<param name="transitLinesAttributesFile" value="null" />
		<!-- Comma-separated list of transportation modes that are handled as transit. Defaults to 'pt'. -->
		<param name="transitModes" value="subway" />
		<!-- Input file containing the transit schedule to be simulated. -->
		<param name="transitScheduleFile" value="transitScheduleMetro.xml" />
		<!-- Optional input file containing additional attributes for transit stop facilities, stored as ObjectAttributes. -->
		<param name="transitStopsAttributesFile" value="null" />
		<!-- Set this parameter to true if transit should be simulated, false if not. -->
		<param name="useTransit" value="true" />
		<param name="usingTransitInMobsim" value="true" />
		<!-- Input file containing the vehicles used by the departures in the transit schedule. -->
		<param name="vehiclesFile" value="transitVehiclesMetro.xml" />
	</module>
	<module name="transitRouter" >
		<!-- additional time the router allocates when a line switch happens. Can be interpreted as a 'safety' time that agents need to safely transfer from one line to another -->
		<param name="additionalTransferTime" value="0.0" />
		<!-- Factor with which direct walk generalized cost is multiplied before it is compared to the pt generalized cost.  Set to a very high value to reduce direct walk results. -->
		<param name="directWalkFactor" value="1.0" />
		<!-- step size to increase searchRadius if no stops are found -->
		<param name="extensionRadius" value="200.0" />
		<!-- maximum beeline distance between stops that agents could transfer to by walking -->
		<param name="maxBeelineWalkConnectionDistance" value="100.0" />
		<!-- the radius in which stop locations are searched, given a start or target coordinate -->
		<param name="searchRadius" value="1000.0" />
	</module>
	<module name="travelTimeCalculator" >
		<!-- (only for backwards compatibility; only used if separateModes==false && + filterModes==true)  Transport modes that will be respected by the travel time collector. 'car' is default which includes also buses from the pt simulation module. -->
		<param name="analyzedModes" value="car" />
		<param name="calculateLinkToLinkTravelTimes" value="false" />
		<param name="calculateLinkTravelTimes" value="true" />
		<!-- (only for backwards compatiblity; only used if separateModes==false)  Only modes included in analyzedModes are included. -->
		<param name="filterModes" value="false" />
		<!-- The lenght (in sec) of the time period that is splited into time bins; an additional time bin is created to aggregate all travel times collected after maxTime -->
		<param name="maxTime" value="108000" />
		<!-- (only for backwards compatibility) If false, link travel times are measured and aggregated over all vehicles using the link. -->
		<param name="separateModes" value="true" />
		<!-- How to deal with congested time bins that have no link entry events. `optimistic' assumes free speed (too optimistic); 'experimental_LastMile' is experimental and probably too pessimistic. -->
		<param name="travelTimeAggregator" value="optimistic" />
		<!-- The size of the time bin (in sec) into which the link travel times are aggregated for the router -->
		<param name="travelTimeBinSize" value="900" />
		<!-- possible values: TravelTimeCalculatorArray TravelTimeCalculatorHashMap  -->
		<param name="travelTimeCalculator" value="TravelTimeCalculatorArray" />
		<!-- How to deal with link entry times at different positions during the time bin. Currently supported: average, linearinterpolation -->
		<param name="travelTimeGetter" value="average" />
	</module>
	<module name="vehicles" >
		<param name="vehiclesFile" value="null" />
	</module>
	<module name="vspExperimental" >
		<!-- (do not use except of you have to) There was a problem with pt interaction scoring.  Some people solved it by overwriting the parameters of the pt interaction activity type.  Doing this now throws an Exception.  If you still insist on doing this, set the following to true. -->
		<param name="isAbleToOverwritePtInteractionParams" value="false" />
		<param name="isGeneratingBoardingDeniedEvent" value="false" />
		<!-- if an approximation of the opportunity cost of time is included into the radius calculation for location choice.`true' will be faster, but it is an approximation.  Default is `true'; `false' is available for backwards compatibility. -->
		<param name="isUsingOpportunityCostOfTimeForLocationChoice" value="true" />
		<param name="logitScaleParamForPlansRemoval" value="1.0" />
		<!-- Options: | ignore | info | warn | abort | .  When violating VSP defaults, this results in nothing, logfile infos, logfile warnings, or aborts.  Members of VSP should use `abort' or talk to kai. -->
		<param name="vspDefaultsCheckingLevel" value="ignore" />
		<!-- if true then writes output_events in output directory.  default is `false'. Will only work when lastIteration is multiple of events writing interval -->
		<param name="writingOutputEvents" value="true" />
	</module>

</config>

2024-01-19T19:36:11,642  INFO ControlerUtils:85 Complete config dump done.
2024-01-19T19:36:11,642  INFO ControlerUtils:86 Checking consistency of config...
2024-01-19T19:36:11,643  INFO VspConfigConsistencyCheckerImpl:64 NOT running vsp config consistency check because vsp defaults checking level is set to IGNORE
2024-01-19T19:36:11,659  INFO ControlerUtils:88 Checking consistency of config done.
2024-01-19T19:36:11,660  INFO PrepareForSimImpl:122 Network seems to be multimodal. Create car-only network which is handed over to PersonPrepareForSim.
2024-01-19T19:36:11,661  INFO NetworkImpl:165  node # 1
2024-01-19T19:36:11,662  INFO NetworkImpl:165  node # 4
2024-01-19T19:36:11,662  INFO NetworkImpl:165  node # 16
2024-01-19T19:36:11,662  INFO NetworkImpl:165  node # 64
2024-01-19T19:36:11,662  INFO NetworkImpl:165  node # 256
2024-01-19T19:36:11,664  INFO NetworkImpl:165  node # 1024
2024-01-19T19:36:11,666  INFO NetworkImpl:165  node # 4096
2024-01-19T19:36:11,676  INFO NetworkImpl:165  node # 16384
2024-01-19T19:36:11,697  INFO NetworkImpl:161  link # 1
2024-01-19T19:36:11,698  INFO NetworkImpl:161  link # 4
2024-01-19T19:36:11,698  INFO NetworkImpl:161  link # 16
2024-01-19T19:36:11,698  INFO NetworkImpl:161  link # 64
2024-01-19T19:36:11,700  INFO NetworkImpl:161  link # 256
2024-01-19T19:36:11,707  INFO NetworkImpl:161  link # 1024
2024-01-19T19:36:11,720  INFO NetworkImpl:161  link # 4096
2024-01-19T19:36:11,764  INFO NetworkImpl:161  link # 16384
2024-01-19T19:36:11,866  INFO NetworkImpl:161  link # 65536
2024-01-19T19:36:11,940  INFO Counter:70 [VehiclesImpl] added vehicle # 1
2024-01-19T19:36:11,940  WARN PrepareForSimImpl:229 'usePersonIdForMissingVehicleId' is deprecated. It will be removed soon.
2024-01-19T19:36:11,940  INFO Counter:70 [VehiclesImpl] added vehicle # 2
2024-01-19T19:36:11,949  INFO EventsManagerImpl:138 adding Event-Handler: ch.sbb.matsim.routing.pt.raptor.SwissRailRaptorFactory$$Lambda$265/0x00000001004e5328
2024-01-19T19:36:11,949  INFO EventsManagerImpl:144   org.matsim.pt.router.TransitScheduleChangedEventHandler
2024-01-19T19:36:11,949  INFO EventsManagerImpl:205     > org.matsim.pt.router.TransitScheduleChangedEvent
2024-01-19T19:36:11,949  INFO EventsManagerImpl:154 
2024-01-19T19:36:11,950  INFO EventsManagerImpl:138 adding Event-Handler: ch.sbb.matsim.routing.pt.raptor.SwissRailRaptorFactory$$Lambda$265/0x00000001004e5328
2024-01-19T19:36:11,950  INFO EventsManagerImpl:144   org.matsim.pt.router.TransitScheduleChangedEventHandler
2024-01-19T19:36:11,950  INFO EventsManagerImpl:205     > org.matsim.pt.router.TransitScheduleChangedEvent
2024-01-19T19:36:11,950  INFO EventsManagerImpl:154 
2024-01-19T19:36:11,955  INFO SwissRailRaptorData:85 Preparing data for SwissRailRaptor...
2024-01-19T19:36:12,025  INFO SwissRailRaptorData:212 SwissRailRaptor data preparation done. Took 0 seconds.
2024-01-19T19:36:12,025  INFO SwissRailRaptorData:213 SwissRailRaptor statistics:  #routes = 48
2024-01-19T19:36:12,025  INFO SwissRailRaptorData:214 SwissRailRaptor statistics:  #departures = 1060
2024-01-19T19:36:12,025  INFO SwissRailRaptorData:215 SwissRailRaptor statistics:  #routeStops = 1082
2024-01-19T19:36:12,025  INFO SwissRailRaptorData:216 SwissRailRaptor statistics:  #stopFacilities = 186
2024-01-19T19:36:12,025  INFO SwissRailRaptorData:217 SwissRailRaptor statistics:  #transfers (between routeStops) = 5833
2024-01-19T19:36:12,178  INFO PreProcessDijkstra:119 nodes in dead ends: 11414 (total nodes: 44164). Done in 139 ms
2024-01-19T19:36:12,179  WARN PreProcessEuclidean:60 There are links with stored length smaller than their Euclidean distance in this network. Thus, A* cannot guarantee to calculate the least-cost paths between two nodes.
2024-01-19T19:36:12,196  INFO PreProcessLandmarks:113 Putting landmarks on network...
2024-01-19T19:36:12,211  INFO LandmarkerPieSlices:97 Filling sectors...
2024-01-19T19:36:12,276  INFO LandmarkerPieSlices:108 Refining landmarks...
2024-01-19T19:36:12,280  INFO LandmarkerPieSlices:110 done
2024-01-19T19:36:12,281  INFO PreProcessLandmarks:116 done in 84 ms
2024-01-19T19:36:12,281  INFO PreProcessLandmarks:118 Initializing landmarks data
2024-01-19T19:36:12,308  INFO PreProcessLandmarks:130 Calculating distance from each node to each of the 16 landmarks using 2 threads...
2024-01-19T19:36:12,310  INFO PreProcessLandmarks:140 wait for landmarks Calculator to finish...
2024-01-19T19:36:12,984  INFO PreProcessLandmarks:164 done in 675 ms
2024-01-19T19:36:12,988  INFO NetworkImpl:165  node # 1
2024-01-19T19:36:12,989  INFO NetworkImpl:165  node # 4
2024-01-19T19:36:12,989  INFO NetworkImpl:165  node # 16
2024-01-19T19:36:12,989  INFO NetworkImpl:165  node # 64
2024-01-19T19:36:12,990  INFO NetworkImpl:165  node # 256
2024-01-19T19:36:12,990  INFO NetworkImpl:165  node # 1024
2024-01-19T19:36:12,992  INFO NetworkImpl:165  node # 4096
2024-01-19T19:36:12,998  INFO NetworkImpl:165  node # 16384
2024-01-19T19:36:13,008  INFO NetworkImpl:161  link # 1
2024-01-19T19:36:13,008  INFO NetworkImpl:161  link # 4
2024-01-19T19:36:13,008  INFO NetworkImpl:161  link # 16
2024-01-19T19:36:13,008  INFO NetworkImpl:161  link # 64
2024-01-19T19:36:13,009  INFO NetworkImpl:161  link # 256
2024-01-19T19:36:13,011  INFO NetworkImpl:161  link # 1024
2024-01-19T19:36:13,017  INFO NetworkImpl:161  link # 4096
2024-01-19T19:36:13,031  INFO NetworkImpl:161  link # 16384
2024-01-19T19:36:13,078  INFO NetworkImpl:161  link # 65536
2024-01-19T19:36:13,114  WARN RandomizingTimeDistanceTravelDisutilityFactory:113 There will be no routing randomness. The randomization of the travel disutility requires the monetary distance rate to be different than zero. Continuing anyway.
2024-01-19T19:36:13,114  WARN RandomizingTimeDistanceTravelDisutilityFactory:118 There will be no routing randomness. The randomization of the travel disutility requires the travel time cost rate to be different than zero. Continuing anyway.
2024-01-19T19:36:13,116  INFO RandomizingTimeDistanceTravelDisutilityFactory:86  sigma: 3.0; resulting normalization: 0.011108996538242306
2024-01-19T19:36:13,223  INFO PreProcessDijkstra:119 nodes in dead ends: 11414 (total nodes: 44082). Done in 101 ms
2024-01-19T19:36:13,225  WARN PreProcessEuclidean:60 There are links with stored length smaller than their Euclidean distance in this network. Thus, A* cannot guarantee to calculate the least-cost paths between two nodes.
2024-01-19T19:36:13,238  INFO PreProcessLandmarks:113 Putting landmarks on network...
2024-01-19T19:36:13,254  INFO LandmarkerPieSlices:97 Filling sectors...
2024-01-19T19:36:13,325  INFO LandmarkerPieSlices:108 Refining landmarks...
2024-01-19T19:36:13,330  INFO LandmarkerPieSlices:110 done
2024-01-19T19:36:13,330  INFO PreProcessLandmarks:116 done in 92 ms
2024-01-19T19:36:13,330  INFO PreProcessLandmarks:118 Initializing landmarks data
2024-01-19T19:36:13,351  INFO PreProcessLandmarks:130 Calculating distance from each node to each of the 16 landmarks using 2 threads...
2024-01-19T19:36:13,352  INFO PreProcessLandmarks:140 wait for landmarks Calculator to finish...
2024-01-19T19:36:13,720  INFO PreProcessLandmarks:164 done in 368 ms
2024-01-19T19:36:13,741  INFO RandomizingTimeDistanceTravelDisutilityFactory:86  sigma: 3.0; resulting normalization: 0.011108996538242306
2024-01-19T19:36:13,762  INFO NetworkImpl:419 building QuadTree for nodes: xrange(-970181.3870054634,-941429.5761751792); yrange(5024234.284042154,5050155.68996038)
2024-01-19T19:36:13,869  INFO NetworkImpl:428 Building QuadTree took 0.119 seconds.
2024-01-19T19:36:13,941  INFO Counter:70 [PersonPrepareForSim] handled person # 1
2024-01-19T19:36:13,942  INFO Counter:75 [PersonPrepareForSim] handled person # 1
2024-01-19T19:36:13,966  INFO AbstractController:134 ###################################################
2024-01-19T19:36:13,967  INFO AbstractController:135 ### ITERATION 0 BEGINS
2024-01-19T19:36:13,968  INFO ControlerListenerManagerImpl:146 calling notifyIterationStarts on org.matsim.analysis.LegHistogramListener
2024-01-19T19:36:13,969  INFO ControlerListenerManagerImpl:146 calling notifyIterationStarts on org.matsim.analysis.LinkStatsControlerListener
2024-01-19T19:36:13,969  INFO ControlerListenerManagerImpl:146 calling notifyIterationStarts on org.matsim.core.replanning.ReplanningContextImpl
2024-01-19T19:36:13,969  INFO ControlerListenerManagerImpl:146 calling notifyIterationStarts on org.matsim.core.scoring.ScoringFunctionsForPopulation$$Lambda$226/0x0000000100452be8
2024-01-19T19:36:13,982  INFO ControlerListenerManagerImpl:146 calling notifyIterationStarts on org.matsim.core.scoring.ExperiencedPlansServiceImpl$1
2024-01-19T19:36:13,983  INFO ControlerListenerManagerImpl:149 [it.0] all ControlerIterationStartsListeners called.
2024-01-19T19:36:13,984  INFO ControlerListenerManagerImpl:225 calling notifyBeforeMobsim on org.matsim.core.controler.corelisteners.EventsHandlingImpl
2024-01-19T19:36:13,984  INFO EventsManagerImpl:168 resetting Event-Handlers
2024-01-19T19:36:13,984  INFO EventsManagerImpl:175   org.matsim.core.trafficmonitoring.TravelTimeCalculator
2024-01-19T19:36:13,999  INFO EventsManagerImpl:175   org.matsim.analysis.VolumesAnalyzer
2024-01-19T19:36:14,000  INFO EventsManagerImpl:175   org.matsim.core.scoring.ScoringFunctionsForPopulation
2024-01-19T19:36:14,000  INFO EventsManagerImpl:175   org.matsim.analysis.LegHistogram
2024-01-19T19:36:14,000  INFO EventsManagerImpl:175   org.matsim.analysis.CalcLegTimes
2024-01-19T19:36:14,000  INFO EventsManagerImpl:175   ch.sbb.matsim.routing.pt.raptor.SwissRailRaptorFactory$$Lambda$265/0x00000001004e5328
2024-01-19T19:36:14,007  INFO EventsManagerImpl:138 adding Event-Handler: org.matsim.core.events.algorithms.EventWriterXML
2024-01-19T19:36:14,007  INFO EventsManagerImpl:144   org.matsim.core.events.algorithms.EventWriter
2024-01-19T19:36:14,007  INFO EventsManagerImpl:144   org.matsim.core.events.handler.BasicEventHandler
2024-01-19T19:36:14,007  INFO EventsManagerImpl:205     > org.matsim.api.core.v01.events.Event
2024-01-19T19:36:14,007  INFO EventsManagerImpl:154 
2024-01-19T19:36:14,007  INFO EventsManagerImpl:138 adding Event-Handler: org.matsim.core.events.algorithms.EventWriterXML
2024-01-19T19:36:14,007  INFO EventsManagerImpl:144   org.matsim.core.events.algorithms.EventWriter
2024-01-19T19:36:14,007  INFO EventsManagerImpl:144   org.matsim.core.events.handler.BasicEventHandler
2024-01-19T19:36:14,007  INFO EventsManagerImpl:205     > org.matsim.api.core.v01.events.Event
2024-01-19T19:36:14,008  INFO EventsManagerImpl:154 
2024-01-19T19:36:14,008  INFO ControlerListenerManagerImpl:225 calling notifyBeforeMobsim on org.matsim.core.controler.corelisteners.PlansDumpingImpl
2024-01-19T19:36:14,008  INFO PlansDumpingImpl:77 dumping plans...
2024-01-19T19:36:14,030  INFO Counter:70 [PopulationWriter] dumped person # 1
2024-01-19T19:36:14,030  INFO PopulationWriter:145 Population written to: ./../output/ITERS/it.0/0.plans.xml.gz
2024-01-19T19:36:14,030  INFO Counter:75 [PopulationWriter] dumped person # 1
2024-01-19T19:36:14,030  INFO PlansDumpingImpl:94 finished plans dump.
2024-01-19T19:36:14,030  INFO ControlerListenerManagerImpl:230 calling notifyBeforeMobsim on org.matsim.core.population.VspPlansCleaner
2024-01-19T19:36:14,031  INFO ControlerListenerManagerImpl:233 [it.0] all ControlerBeforeMobsimListeners called.
2024-01-19T19:36:14,031  INFO PrepareForMobsimImpl:87 Network seems to be multimodal. Create car-only network which is handed over to PersonPrepareForSim.
2024-01-19T19:36:14,031  INFO NetworkImpl:165  node # 1
2024-01-19T19:36:14,032  INFO NetworkImpl:165  node # 4
2024-01-19T19:36:14,032  INFO NetworkImpl:165  node # 16
2024-01-19T19:36:14,032  INFO NetworkImpl:165  node # 64
2024-01-19T19:36:14,032  INFO NetworkImpl:165  node # 256
2024-01-19T19:36:14,032  INFO NetworkImpl:165  node # 1024
2024-01-19T19:36:14,033  INFO NetworkImpl:165  node # 4096
2024-01-19T19:36:14,044  INFO NetworkImpl:165  node # 16384
2024-01-19T19:36:14,059  INFO NetworkImpl:161  link # 1
2024-01-19T19:36:14,059  INFO NetworkImpl:161  link # 4
2024-01-19T19:36:14,059  INFO NetworkImpl:161  link # 16
2024-01-19T19:36:14,060  INFO NetworkImpl:161  link # 64
2024-01-19T19:36:14,060  INFO NetworkImpl:161  link # 256
2024-01-19T19:36:14,062  INFO NetworkImpl:161  link # 1024
2024-01-19T19:36:14,069  INFO NetworkImpl:161  link # 4096
2024-01-19T19:36:14,083  INFO NetworkImpl:161  link # 16384
2024-01-19T19:36:14,168  INFO NetworkImpl:161  link # 65536
2024-01-19T19:36:14,205  INFO RandomizingTimeDistanceTravelDisutilityFactory:86  sigma: 3.0; resulting normalization: 0.011108996538242306
2024-01-19T19:36:14,214  INFO RandomizingTimeDistanceTravelDisutilityFactory:86  sigma: 3.0; resulting normalization: 0.011108996538242306
2024-01-19T19:36:14,225  INFO Counter:70 [PersonPrepareForSim] handled person # 1
2024-01-19T19:36:14,225  INFO Counter:75 [PersonPrepareForSim] handled person # 1
2024-01-19T19:36:14,264  INFO MobsimListenerManager:50 calling addQueueSimulationListener
2024-01-19T19:36:14,265  INFO MobsimListenerManager:54   assigned class org.matsim.core.mobsim.framework.listeners.MobsimListener to interface org.matsim.core.mobsim.framework.listeners.MobsimInitializedListener
2024-01-19T19:36:14,265  INFO MobsimListenerManager:54   assigned class org.matsim.core.mobsim.framework.listeners.MobsimListener to interface org.matsim.core.mobsim.framework.listeners.MobsimBeforeCleanupListener
2024-01-19T19:36:14,265  INFO MobsimListenerManager:54   assigned class org.matsim.core.mobsim.framework.listeners.MobsimListener to interface org.matsim.vis.snapshotwriters.SnapshotWriterManager
2024-01-19T19:36:14,265  INFO MobsimListenerManager:54   assigned class org.matsim.core.mobsim.framework.listeners.MobsimListener to interface org.matsim.core.mobsim.framework.listeners.MobsimListener
2024-01-19T19:36:14,265  INFO MobsimListenerManager:54   assigned class org.matsim.core.mobsim.framework.listeners.MobsimListener to interface org.matsim.core.mobsim.framework.listeners.MobsimAfterSimStepListener
2024-01-19T19:36:14,294  WARN QueueWithBuffer:500 Link pt_0_bus too small: enlarge storage capacity from: 27.77777777777778 Vehicles to: 50.0 Vehicles.  This is not fatal, but modifies the traffic flow dynamics.
2024-01-19T19:36:14,295  WARN QueueWithBuffer:500 Link pt_1_bus too small: enlarge storage capacity from: 105.17529063559581 Vehicles to: 788.8146797669687 Vehicles.  This is not fatal, but modifies the traffic flow dynamics.
2024-01-19T19:36:14,295  WARN QueueWithBuffer:500 Link pt_10_bus too small: enlarge storage capacity from: 100.92307474753315 Vehicles to: 756.9230606064987 Vehicles.  This is not fatal, but modifies the traffic flow dynamics.
2024-01-19T19:36:14,296  WARN QueueWithBuffer:500 Link pt_100_bus too small: enlarge storage capacity from: 48.17484921601171 Vehicles to: 361.3113691200878 Vehicles.  This is not fatal, but modifies the traffic flow dynamics.
2024-01-19T19:36:14,296  WARN QueueWithBuffer:500 Link pt_1000_bus too small: enlarge storage capacity from: 41.82372844956319 Vehicles to: 313.67796337172393 Vehicles.  This is not fatal, but modifies the traffic flow dynamics.
2024-01-19T19:36:14,296  WARN QueueWithBuffer:500 Link pt_1001_bus too small: enlarge storage capacity from: 39.46737625100742 Vehicles to: 296.0053218825557 Vehicles.  This is not fatal, but modifies the traffic flow dynamics.
2024-01-19T19:36:14,296  WARN QueueWithBuffer:500 Link pt_1002_bus too small: enlarge storage capacity from: 75.8324360903052 Vehicles to: 568.7432706772889 Vehicles.  This is not fatal, but modifies the traffic flow dynamics.
2024-01-19T19:36:14,296  WARN QueueWithBuffer:500 Link pt_1003_bus too small: enlarge storage capacity from: 94.35843320642431 Vehicles to: 707.6882490481823 Vehicles.  This is not fatal, but modifies the traffic flow dynamics.
2024-01-19T19:36:14,296  WARN QueueWithBuffer:500 Link pt_1004_bus too small: enlarge storage capacity from: 33.61287721127312 Vehicles to: 252.09657908454844 Vehicles.  This is not fatal, but modifies the traffic flow dynamics.
2024-01-19T19:36:14,296  WARN QueueWithBuffer:500 Link pt_1005_bus too small: enlarge storage capacity from: 35.90427244451733 Vehicles to: 269.28204333388 Vehicles.  This is not fatal, but modifies the traffic flow dynamics.
2024-01-19T19:36:14,296  WARN QueueWithBuffer:500 Link pt_1006_bus too small: enlarge storage capacity from: 42.189122774588455 Vehicles to: 316.4184208094134 Vehicles.  This is not fatal, but modifies the traffic flow dynamics.
2024-01-19T19:36:14,296  WARN QueueWithBuffer:503 Additional warnings of this type are suppressed.
2024-01-19T19:36:14,568  INFO QSimProvider:131 Added MobsimEngine class org.matsim.core.mobsim.qsim.ActivityEngineDefaultImpl
2024-01-19T19:36:14,568  INFO QSimProvider:137 Added Activityhandler class org.matsim.core.mobsim.qsim.ActivityEngineDefaultImpl
2024-01-19T19:36:14,569  INFO QSimProvider:143 Added DepartureHandler class org.matsim.core.mobsim.qsim.qnetsimengine.VehicularDepartureHandler
2024-01-19T19:36:14,569  INFO QSimProvider:131 Added MobsimEngine class org.matsim.core.mobsim.qsim.qnetsimengine.QNetsimEngineWithThreadpool
2024-01-19T19:36:14,569  INFO QSimProvider:131 Added MobsimEngine class org.matsim.core.mobsim.qsim.DefaultTeleportationEngine
2024-01-19T19:36:14,569  INFO QSimProvider:143 Added DepartureHandler class org.matsim.core.mobsim.qsim.DefaultTeleportationEngine
2024-01-19T19:36:14,569  INFO QSimProvider:149 Added AgentSource class org.matsim.core.mobsim.qsim.agents.PopulationAgentSource
2024-01-19T19:36:14,569  INFO MobsimListenerManager:50 calling addQueueSimulationListener
2024-01-19T19:36:14,569  INFO MobsimListenerManager:54   assigned class org.matsim.core.mobsim.framework.listeners.MobsimListener to interface org.matsim.core.mobsim.framework.listeners.MobsimBeforeSimStepListener
2024-01-19T19:36:14,569  INFO MobsimListenerManager:54   assigned class org.matsim.core.mobsim.framework.listeners.MobsimListener to interface org.matsim.core.mobsim.framework.listeners.MobsimListener
2024-01-19T19:36:14,569  INFO MobsimListenerManager:54   assigned class org.matsim.core.mobsim.framework.listeners.MobsimListener to interface org.matsim.core.mobsim.qsim.messagequeueengine.MessageQueueEngine
2024-01-19T19:36:14,569  INFO QSimProvider:155 Added MobsimListener class org.matsim.core.mobsim.qsim.messagequeueengine.MessageQueueEngine
2024-01-19T19:36:14,571  INFO QSimProvider:131 Added MobsimEngine class org.matsim.core.mobsim.qsim.pt.TransitQSimEngine
2024-01-19T19:36:14,571  INFO QSimProvider:143 Added DepartureHandler class org.matsim.core.mobsim.qsim.pt.TransitQSimEngine
2024-01-19T19:36:14,572  INFO QSimProvider:149 Added AgentSource class org.matsim.core.mobsim.qsim.pt.TransitQSimEngine
2024-01-19T19:36:14,585  INFO PopulationUtils:1202 adding scenario element for allpersons container
2024-01-19T19:36:14,585  INFO PopulationImpl:107  person # 1
2024-01-19T19:36:14,586  INFO VehicleUtils:328 adding scenario element for allvehicles container
2024-01-19T19:36:14,586  INFO Counter:70 [VehiclesImpl] added vehicle # 1
2024-01-19T19:36:14,589  INFO ReconstructingUmlaufBuilder:133 Generating UmlaufStuecke ...
2024-01-19T19:36:14,591  INFO ReconstructingUmlaufBuilder:146 ... done generating UmlaufStuecke
2024-01-19T19:36:14,608  INFO Counter:70 [VehiclesImpl] added vehicle # 2
2024-01-19T19:36:14,609  INFO Counter:70 [VehiclesImpl] added vehicle # 4
2024-01-19T19:36:14,609  INFO Counter:70 [VehiclesImpl] added vehicle # 8
2024-01-19T19:36:14,609  INFO Counter:70 [VehiclesImpl] added vehicle # 16
2024-01-19T19:36:14,610  INFO Counter:70 [VehiclesImpl] added vehicle # 32
2024-01-19T19:36:14,611  INFO Counter:70 [VehiclesImpl] added vehicle # 64
2024-01-19T19:36:14,614  INFO Counter:70 [VehiclesImpl] added vehicle # 128
2024-01-19T19:36:14,618  INFO Counter:70 [VehiclesImpl] added vehicle # 256
2024-01-19T19:36:14,626  INFO Counter:70 [VehiclesImpl] added vehicle # 512
2024-01-19T19:36:14,640  INFO Counter:70 [VehiclesImpl] added vehicle # 1024
2024-01-19T19:36:14,720  INFO AbstractQNetsimEngine:428 Assigned 44164 nodes and 91176 links to QSimEngineRunner #0
2024-01-19T19:36:14,728  INFO EventsManagerImpl:115  event # 1
2024-01-19T19:36:14,730  INFO EventsManagerImpl:115  event # 4
2024-01-19T19:36:14,739  INFO AbstractQNetsimEngine:366 SIMULATION (QNetsimEngine) AT 05:44:00 : #links=0 #nodes=1
2024-01-19T19:36:14,749  INFO QSim:566 SIMULATION (NEW QSim) AT 05:44:00 : #Veh=1061 lost=0 simT=0.0s realT=0s; (s/r): 0.0
2024-01-19T19:36:14,817  INFO EventsManagerImpl:115  event # 16
2024-01-19T19:36:14,868  INFO EventsManagerImpl:115  event # 64
2024-01-19T19:36:14,871  INFO AbstractQNetsimEngine:366 SIMULATION (QNetsimEngine) AT 06:00:00 : #links=2 #nodes=6
2024-01-19T19:36:14,872  INFO QSim:566 SIMULATION (NEW QSim) AT 06:00:00 : #Veh=1061 lost=0 simT=960.0s realT=0s; (s/r): Infinity
2024-01-19T19:36:14,892  INFO EventsManagerImpl:115  event # 256
2024-01-19T19:36:14,954  INFO EventsManagerImpl:115  event # 1024
2024-01-19T19:36:15,025  INFO AbstractQNetsimEngine:366 SIMULATION (QNetsimEngine) AT 07:00:00 : #links=9 #nodes=16
2024-01-19T19:36:15,025  INFO QSim:566 SIMULATION (NEW QSim) AT 07:00:00 : #Veh=1044 lost=0 simT=4560.0s realT=0s; (s/r): Infinity
2024-01-19T19:36:15,066  INFO EventsManagerImpl:115  event # 4096
2024-01-19T19:36:15,153  INFO AbstractQNetsimEngine:366 SIMULATION (QNetsimEngine) AT 08:00:00 : #links=12 #nodes=23
2024-01-19T19:36:15,154  INFO QSim:566 SIMULATION (NEW QSim) AT 08:00:00 : #Veh=991 lost=0 simT=8160.0s realT=0s; (s/r): Infinity
2024-01-19T19:36:15,273  INFO AbstractQNetsimEngine:366 SIMULATION (QNetsimEngine) AT 09:00:00 : #links=18 #nodes=22
2024-01-19T19:36:15,273  INFO QSim:566 SIMULATION (NEW QSim) AT 09:00:00 : #Veh=924 lost=0 simT=11760.0s realT=1s; (s/r): 11760.0
2024-01-19T19:36:15,333  INFO EventsManagerImpl:115  event # 16384
2024-01-19T19:36:15,462  INFO AbstractQNetsimEngine:366 SIMULATION (QNetsimEngine) AT 10:00:00 : #links=15 #nodes=16
2024-01-19T19:36:15,462  INFO QSim:566 SIMULATION (NEW QSim) AT 10:00:00 : #Veh=856 lost=0 simT=15360.0s realT=1s; (s/r): 15360.0
2024-01-19T19:36:15,608  INFO AbstractQNetsimEngine:366 SIMULATION (QNetsimEngine) AT 11:00:00 : #links=14 #nodes=20
2024-01-19T19:36:15,608  INFO QSim:566 SIMULATION (NEW QSim) AT 11:00:00 : #Veh=793 lost=0 simT=18960.0s realT=1s; (s/r): 18960.0
2024-01-19T19:36:15,689  INFO AbstractQNetsimEngine:366 SIMULATION (QNetsimEngine) AT 12:00:00 : #links=12 #nodes=22
2024-01-19T19:36:15,689  INFO QSim:566 SIMULATION (NEW QSim) AT 12:00:00 : #Veh=732 lost=0 simT=22560.0s realT=1s; (s/r): 22560.0
2024-01-19T19:36:15,817  INFO AbstractQNetsimEngine:366 SIMULATION (QNetsimEngine) AT 13:00:00 : #links=11 #nodes=24
2024-01-19T19:36:15,818  INFO QSim:566 SIMULATION (NEW QSim) AT 13:00:00 : #Veh=673 lost=0 simT=26160.0s realT=1s; (s/r): 26160.0
2024-01-19T19:36:15,946  INFO AbstractQNetsimEngine:366 SIMULATION (QNetsimEngine) AT 14:00:00 : #links=12 #nodes=22
2024-01-19T19:36:15,946  INFO QSim:566 SIMULATION (NEW QSim) AT 14:00:00 : #Veh=612 lost=0 simT=29760.0s realT=1s; (s/r): 29760.0
2024-01-19T19:36:16,069  INFO AbstractQNetsimEngine:366 SIMULATION (QNetsimEngine) AT 15:00:00 : #links=14 #nodes=20
2024-01-19T19:36:16,069  INFO QSim:566 SIMULATION (NEW QSim) AT 15:00:00 : #Veh=552 lost=0 simT=33360.0s realT=1s; (s/r): 33360.0
2024-01-19T19:36:16,147  INFO AbstractQNetsimEngine:366 SIMULATION (QNetsimEngine) AT 16:00:00 : #links=17 #nodes=15
2024-01-19T19:36:16,147  INFO QSim:566 SIMULATION (NEW QSim) AT 16:00:00 : #Veh=492 lost=0 simT=36960.0s realT=1s; (s/r): 36960.0
2024-01-19T19:36:16,228  INFO AbstractQNetsimEngine:366 SIMULATION (QNetsimEngine) AT 17:00:00 : #links=14 #nodes=26
2024-01-19T19:36:16,228  INFO QSim:566 SIMULATION (NEW QSim) AT 17:00:00 : #Veh=429 lost=0 simT=40560.0s realT=1s; (s/r): 40560.0
2024-01-19T19:36:16,237 ERROR BasicPlanAgentImpl:187 last activity of person driver agent id 1 has end time < infty; setting it to infty
2024-01-19T19:36:16,238 ERROR BasicPlanAgentImpl:188  This message given only once.
2024-01-19T19:36:16,309  INFO AbstractQNetsimEngine:366 SIMULATION (QNetsimEngine) AT 18:00:00 : #links=13 #nodes=24
2024-01-19T19:36:16,309  INFO QSim:566 SIMULATION (NEW QSim) AT 18:00:00 : #Veh=359 lost=0 simT=44160.0s realT=2s; (s/r): 22080.0
2024-01-19T19:36:16,314  INFO EventsManagerImpl:115  event # 65536
2024-01-19T19:36:16,389  INFO AbstractQNetsimEngine:366 SIMULATION (QNetsimEngine) AT 19:00:00 : #links=14 #nodes=22
2024-01-19T19:36:16,389  INFO QSim:566 SIMULATION (NEW QSim) AT 19:00:00 : #Veh=291 lost=0 simT=47760.0s realT=2s; (s/r): 23880.0
2024-01-19T19:36:16,468  INFO AbstractQNetsimEngine:366 SIMULATION (QNetsimEngine) AT 20:00:00 : #links=19 #nodes=16
2024-01-19T19:36:16,469  INFO QSim:566 SIMULATION (NEW QSim) AT 20:00:00 : #Veh=223 lost=0 simT=51360.0s realT=2s; (s/r): 25680.0
2024-01-19T19:36:16,541  INFO AbstractQNetsimEngine:366 SIMULATION (QNetsimEngine) AT 21:00:00 : #links=15 #nodes=11
2024-01-19T19:36:16,541  INFO QSim:566 SIMULATION (NEW QSim) AT 21:00:00 : #Veh=168 lost=0 simT=54960.0s realT=2s; (s/r): 27480.0
2024-01-19T19:36:16,609  INFO AbstractQNetsimEngine:366 SIMULATION (QNetsimEngine) AT 22:00:00 : #links=12 #nodes=13
2024-01-19T19:36:16,609  INFO QSim:566 SIMULATION (NEW QSim) AT 22:00:00 : #Veh=125 lost=0 simT=58560.0s realT=2s; (s/r): 29280.0
2024-01-19T19:36:16,674  INFO AbstractQNetsimEngine:366 SIMULATION (QNetsimEngine) AT 23:00:00 : #links=9 #nodes=13
2024-01-19T19:36:16,674  INFO QSim:566 SIMULATION (NEW QSim) AT 23:00:00 : #Veh=87 lost=0 simT=62160.0s realT=2s; (s/r): 31080.0
2024-01-19T19:36:16,745  INFO AbstractQNetsimEngine:366 SIMULATION (QNetsimEngine) AT 24:00:00 : #links=8 #nodes=11
2024-01-19T19:36:16,745  INFO QSim:566 SIMULATION (NEW QSim) AT 24:00:00 : #Veh=51 lost=0 simT=65760.0s realT=2s; (s/r): 32880.0
2024-01-19T19:36:16,807  INFO AbstractQNetsimEngine:366 SIMULATION (QNetsimEngine) AT 25:00:00 : #links=10 #nodes=7
2024-01-19T19:36:16,807  INFO QSim:566 SIMULATION (NEW QSim) AT 25:00:00 : #Veh=20 lost=0 simT=69360.0s realT=2s; (s/r): 34680.0
2024-01-19T19:36:16,898  INFO AbstractController$9:235 ### ITERATION 0 fires after mobsim event
2024-01-19T19:36:16,898  INFO ControlerListenerManagerImpl:249 calling notifyAfterMobsim on org.matsim.analysis.LegTimesControlerListener
2024-01-19T19:36:16,900  INFO Gbl:192 Thread performance: Thread=class org.matsim.core.events.SimStepParallelEventsManagerImpl$ProcessEventsRunnable0  cpu-time=0.616234905sec
2024-01-19T19:36:16,901  INFO LegTimesControlerListener:51 [0] average trip (probably: leg) duration is: 356 seconds = 00:05:56
2024-01-19T19:36:16,901  INFO ControlerListenerManagerImpl:249 calling notifyAfterMobsim on org.matsim.core.events.MobsimScopeEventHandling
2024-01-19T19:36:16,902  INFO ControlerListenerManagerImpl:249 calling notifyAfterMobsim on org.matsim.core.scoring.EventsToActivities$1
2024-01-19T19:36:16,902  INFO ControlerListenerManagerImpl:252 [it.0] all ControlerAfterMobsimListeners called.
2024-01-19T19:36:16,903  INFO AbstractController$4:160 ### ITERATION 0 fires scoring event
2024-01-19T19:36:16,903  INFO ControlerListenerManagerImpl:184 calling notifyScoring on org.matsim.core.scoring.PlansScoringImpl
2024-01-19T19:36:16,910  INFO NewScoreAssignerImpl:58 it: 0 msaStart: null
2024-01-19T19:36:16,911  INFO ControlerListenerManagerImpl:195 [it.0] all ControlerScoringListeners called.
2024-01-19T19:36:16,912  INFO AbstractController$5:168 ### ITERATION 0 fires iteration end event
2024-01-19T19:36:16,913  INFO ControlerListenerManagerImpl:161 calling notifyIterationEnds on org.matsim.core.controler.corelisteners.EventsHandlingImpl
2024-01-19T19:36:16,914  INFO EventsManagerImpl:159 removing Event-Handler: org.matsim.core.events.algorithms.EventWriterXML
2024-01-19T19:36:16,914  INFO EventsManagerImpl:159 removing Event-Handler: org.matsim.core.events.algorithms.EventWriterXML
2024-01-19T19:36:16,914  INFO ControlerListenerManagerImpl:161 calling notifyIterationEnds on org.matsim.core.scoring.PlansScoringImpl
2024-01-19T19:36:16,914  INFO ControlerListenerManagerImpl:168 calling notifyIterationEnds on org.matsim.counts.CountsControlerListener
2024-01-19T19:36:16,915  INFO ControlerListenerManagerImpl:168 calling notifyIterationEnds on org.matsim.analysis.ModeStatsControlerListener
2024-01-19T19:36:16,916  INFO ModeStatsControlerListener:145 Mode shares over all 3.0 trips found. MainModeIdentifier: class org.matsim.core.router.RoutingModeMainModeIdentifier
2024-01-19T19:36:16,917  INFO ModeStatsControlerListener:152 -- mode share of mode car = 1.0
2024-01-19T19:36:16,918  INFO ControlerListenerManagerImpl:168 calling notifyIterationEnds on org.matsim.analysis.ScoreStatsControlerListener
2024-01-19T19:36:16,919  INFO ScoreStatsControlerListener:182 -- avg. score of the executed plan of each agent: 56.65276603032654
2024-01-19T19:36:16,919  INFO ScoreStatsControlerListener:183 -- avg. score of the worst plan of each agent: 56.65276603032654
2024-01-19T19:36:16,919  INFO ScoreStatsControlerListener:184 -- avg. of the avg. plan score per agent: 56.65276603032654
2024-01-19T19:36:16,919  INFO ScoreStatsControlerListener:185 -- avg. score of the best plan of each agent: 56.65276603032654
2024-01-19T19:36:16,931  INFO ControlerListenerManagerImpl:168 calling notifyIterationEnds on org.matsim.analysis.IterationTravelStatsControlerListener
2024-01-19T19:36:16,959  INFO TravelDistanceStats:144 -- average leg distance per plan (executed plans only): 5013.976650524703 meters
2024-01-19T19:36:16,960  INFO TravelDistanceStats:145 average leg distance per Person (executed plans only): 15041.929951574108 meters (statistic on all 3 legs which have a finite distance)
2024-01-19T19:36:16,960  INFO TravelDistanceStats:146 -- average trip distance per plan (executed plans only): 5013.976650524703 meters
2024-01-19T19:36:16,961  INFO TravelDistanceStats:147 average trip distance per Person (executed plans only): 15041.929951574108 meters (statistic on all 3 trips which have a finite distance)
2024-01-19T19:36:16,961  INFO TravelDistanceStats:148 (TravelDistanceStats takes an average over all legs where the simulation reports travelled (network) distances
2024-01-19T19:36:16,961  INFO TravelDistanceStats:149 (and teleported legs whose route contains a distance.)
2024-01-19T19:36:17,416  INFO ControlerListenerManagerImpl:168 calling notifyIterationEnds on org.matsim.analysis.LegHistogramListener
2024-01-19T19:36:17,422  INFO LegHistogramListener:73 number of legs:	3	100%
2024-01-19T19:36:17,425  INFO LegHistogramListener:80 number of car legs:	3	100.0%
2024-01-19T19:36:17,558  INFO ControlerListenerManagerImpl:168 calling notifyIterationEnds on org.matsim.analysis.LinkStatsControlerListener
2024-01-19T19:36:17,559  INFO ControlerListenerManagerImpl:172 [it.0] all ControlerIterationEndsListeners called.
2024-01-19T19:36:17,619  INFO AbstractController:182 ### ITERATION 0 ENDS
2024-01-19T19:36:17,619  INFO AbstractController:183 ###################################################
2024-01-19T19:36:17,619  INFO AbstractController:134 ###################################################
2024-01-19T19:36:17,619  INFO AbstractController:135 ### ITERATION 1 BEGINS
2024-01-19T19:36:17,620  INFO ControlerListenerManagerImpl:146 calling notifyIterationStarts on org.matsim.analysis.LegHistogramListener
2024-01-19T19:36:17,620  INFO ControlerListenerManagerImpl:146 calling notifyIterationStarts on org.matsim.analysis.LinkStatsControlerListener
2024-01-19T19:36:17,620  INFO ControlerListenerManagerImpl:146 calling notifyIterationStarts on org.matsim.core.replanning.ReplanningContextImpl
2024-01-19T19:36:17,620  INFO ControlerListenerManagerImpl:146 calling notifyIterationStarts on org.matsim.core.scoring.ScoringFunctionsForPopulation$$Lambda$226/0x0000000100452be8
2024-01-19T19:36:17,620  INFO ControlerListenerManagerImpl:146 calling notifyIterationStarts on org.matsim.core.scoring.ExperiencedPlansServiceImpl$1
2024-01-19T19:36:17,620  INFO ControlerListenerManagerImpl:149 [it.1] all ControlerIterationStartsListeners called.
2024-01-19T19:36:17,621  INFO ControlerListenerManagerImpl:206 calling notifyReplanning on org.matsim.core.controler.corelisteners.PlansReplanningImpl
2024-01-19T19:36:17,623  INFO RandomizingTimeDistanceTravelDisutilityFactory:86  sigma: 3.0; resulting normalization: 0.011108996538242306
2024-01-19T19:36:17,625  INFO RandomizingTimeDistanceTravelDisutilityFactory:86  sigma: 3.0; resulting normalization: 0.011108996538242306
2024-01-19T19:36:17,635  INFO GenericPlanStrategyImpl:127 Plan-Strategy finished, 1 plans handled. Strategy: BestPlanSelector
2024-01-19T19:36:17,637  INFO AbstractMultithreadedModule:142 [PlanRouter] starting 2 threads, handling 0 plans
2024-01-19T19:36:17,640  INFO AbstractMultithreadedModule:157 [PlanRouter] all 2 threads finished.
2024-01-19T19:36:17,640  INFO GenericPlanStrategyImpl:127 Plan-Strategy finished, 0 plans handled. Strategy: RandomPlanSelector_ReRoute
[...]
2024-01-19T19:36:36,987  INFO MobsimListenerManager:54   assigned class org.matsim.core.mobsim.framework.listeners.MobsimListener to interface org.matsim.core.mobsim.framework.listeners.MobsimBeforeCleanupListener
2024-01-19T19:36:36,987  INFO MobsimListenerManager:54   assigned class org.matsim.core.mobsim.framework.listeners.MobsimListener to interface org.matsim.vis.snapshotwriters.SnapshotWriterManager
2024-01-19T19:36:36,987  INFO MobsimListenerManager:54   assigned class org.matsim.core.mobsim.framework.listeners.MobsimListener to interface org.matsim.core.mobsim.framework.listeners.MobsimListener
2024-01-19T19:36:36,987  INFO MobsimListenerManager:54   assigned class org.matsim.core.mobsim.framework.listeners.MobsimListener to interface org.matsim.core.mobsim.framework.listeners.MobsimAfterSimStepListener
2024-01-19T19:36:37,101  INFO QSimProvider:131 Added MobsimEngine class org.matsim.core.mobsim.qsim.ActivityEngineDefaultImpl
2024-01-19T19:36:37,101  INFO QSimProvider:137 Added Activityhandler class org.matsim.core.mobsim.qsim.ActivityEngineDefaultImpl
2024-01-19T19:36:37,101  INFO QSimProvider:143 Added DepartureHandler class org.matsim.core.mobsim.qsim.qnetsimengine.VehicularDepartureHandler
2024-01-19T19:36:37,101  INFO QSimProvider:131 Added MobsimEngine class org.matsim.core.mobsim.qsim.qnetsimengine.QNetsimEngineWithThreadpool
2024-01-19T19:36:37,101  INFO QSimProvider:131 Added MobsimEngine class org.matsim.core.mobsim.qsim.DefaultTeleportationEngine
2024-01-19T19:36:37,101  INFO QSimProvider:143 Added DepartureHandler class org.matsim.core.mobsim.qsim.DefaultTeleportationEngine
2024-01-19T19:36:37,102  INFO QSimProvider:149 Added AgentSource class org.matsim.core.mobsim.qsim.agents.PopulationAgentSource
2024-01-19T19:36:37,102  INFO MobsimListenerManager:50 calling addQueueSimulationListener
2024-01-19T19:36:37,102  INFO MobsimListenerManager:54   assigned class org.matsim.core.mobsim.framework.listeners.MobsimListener to interface org.matsim.core.mobsim.framework.listeners.MobsimBeforeSimStepListener
2024-01-19T19:36:37,102  INFO MobsimListenerManager:54   assigned class org.matsim.core.mobsim.framework.listeners.MobsimListener to interface org.matsim.core.mobsim.framework.listeners.MobsimListener
2024-01-19T19:36:37,102  INFO MobsimListenerManager:54   assigned class org.matsim.core.mobsim.framework.listeners.MobsimListener to interface org.matsim.core.mobsim.qsim.messagequeueengine.MessageQueueEngine
2024-01-19T19:36:37,102  INFO QSimProvider:155 Added MobsimListener class org.matsim.core.mobsim.qsim.messagequeueengine.MessageQueueEngine
2024-01-19T19:36:37,102  INFO QSimProvider:131 Added MobsimEngine class org.matsim.core.mobsim.qsim.pt.TransitQSimEngine
2024-01-19T19:36:37,102  INFO QSimProvider:143 Added DepartureHandler class org.matsim.core.mobsim.qsim.pt.TransitQSimEngine
2024-01-19T19:36:37,102  INFO QSimProvider:149 Added AgentSource class org.matsim.core.mobsim.qsim.pt.TransitQSimEngine
2024-01-19T19:36:37,104  INFO ReconstructingUmlaufBuilder:133 Generating UmlaufStuecke ...
2024-01-19T19:36:37,105  INFO ReconstructingUmlaufBuilder:146 ... done generating UmlaufStuecke
2024-01-19T19:36:37,134  INFO AbstractQNetsimEngine:428 Assigned 44164 nodes and 91176 links to QSimEngineRunner #0
2024-01-19T19:36:37,135  INFO AbstractQNetsimEngine:366 SIMULATION (QNetsimEngine) AT 05:44:00 : #links=0 #nodes=1
2024-01-19T19:36:37,135  INFO QSim:566 SIMULATION (NEW QSim) AT 05:44:00 : #Veh=1061 lost=0 simT=0.0s realT=0s; (s/r): 0.0
2024-01-19T19:36:37,151  INFO AbstractQNetsimEngine:366 SIMULATION (QNetsimEngine) AT 06:00:00 : #links=2 #nodes=6
2024-01-19T19:36:37,151  INFO QSim:566 SIMULATION (NEW QSim) AT 06:00:00 : #Veh=1061 lost=0 simT=960.0s realT=0s; (s/r): Infinity
2024-01-19T19:36:37,215  INFO AbstractQNetsimEngine:366 SIMULATION (QNetsimEngine) AT 07:00:00 : #links=9 #nodes=16
2024-01-19T19:36:37,215  INFO QSim:566 SIMULATION (NEW QSim) AT 07:00:00 : #Veh=1044 lost=0 simT=4560.0s realT=0s; (s/r): Infinity
2024-01-19T19:36:37,285  INFO AbstractQNetsimEngine:366 SIMULATION (QNetsimEngine) AT 08:00:00 : #links=12 #nodes=23
2024-01-19T19:36:37,285  INFO QSim:566 SIMULATION (NEW QSim) AT 08:00:00 : #Veh=991 lost=0 simT=8160.0s realT=0s; (s/r): Infinity
2024-01-19T19:36:37,359  INFO AbstractQNetsimEngine:366 SIMULATION (QNetsimEngine) AT 09:00:00 : #links=18 #nodes=22
2024-01-19T19:36:37,359  INFO QSim:566 SIMULATION (NEW QSim) AT 09:00:00 : #Veh=924 lost=0 simT=11760.0s realT=0s; (s/r): Infinity
2024-01-19T19:36:37,428  INFO AbstractQNetsimEngine:366 SIMULATION (QNetsimEngine) AT 10:00:00 : #links=15 #nodes=16
2024-01-19T19:36:37,428  INFO QSim:566 SIMULATION (NEW QSim) AT 10:00:00 : #Veh=856 lost=0 simT=15360.0s realT=0s; (s/r): Infinity
2024-01-19T19:36:37,497  INFO AbstractQNetsimEngine:366 SIMULATION (QNetsimEngine) AT 11:00:00 : #links=14 #nodes=20
2024-01-19T19:36:37,497  INFO QSim:566 SIMULATION (NEW QSim) AT 11:00:00 : #Veh=793 lost=0 simT=18960.0s realT=0s; (s/r): Infinity
2024-01-19T19:36:37,571  INFO AbstractQNetsimEngine:366 SIMULATION (QNetsimEngine) AT 12:00:00 : #links=12 #nodes=22
2024-01-19T19:36:37,571  INFO QSim:566 SIMULATION (NEW QSim) AT 12:00:00 : #Veh=732 lost=0 simT=22560.0s realT=0s; (s/r): Infinity
2024-01-19T19:36:37,640  INFO AbstractQNetsimEngine:366 SIMULATION (QNetsimEngine) AT 13:00:00 : #links=11 #nodes=24
2024-01-19T19:36:37,640  INFO QSim:566 SIMULATION (NEW QSim) AT 13:00:00 : #Veh=673 lost=0 simT=26160.0s realT=0s; (s/r): Infinity
2024-01-19T19:36:37,707  INFO AbstractQNetsimEngine:366 SIMULATION (QNetsimEngine) AT 14:00:00 : #links=12 #nodes=22
2024-01-19T19:36:37,707  INFO QSim:566 SIMULATION (NEW QSim) AT 14:00:00 : #Veh=612 lost=0 simT=29760.0s realT=0s; (s/r): Infinity
2024-01-19T19:36:37,776  INFO AbstractQNetsimEngine:366 SIMULATION (QNetsimEngine) AT 15:00:00 : #links=14 #nodes=20
2024-01-19T19:36:37,776  INFO QSim:566 SIMULATION (NEW QSim) AT 15:00:00 : #Veh=552 lost=0 simT=33360.0s realT=0s; (s/r): Infinity
2024-01-19T19:36:37,847  INFO AbstractQNetsimEngine:366 SIMULATION (QNetsimEngine) AT 16:00:00 : #links=17 #nodes=15
2024-01-19T19:36:37,847  INFO QSim:566 SIMULATION (NEW QSim) AT 16:00:00 : #Veh=492 lost=0 simT=36960.0s realT=0s; (s/r): Infinity
2024-01-19T19:36:37,917  INFO AbstractQNetsimEngine:366 SIMULATION (QNetsimEngine) AT 17:00:00 : #links=14 #nodes=26
2024-01-19T19:36:37,917  INFO QSim:566 SIMULATION (NEW QSim) AT 17:00:00 : #Veh=429 lost=0 simT=40560.0s realT=0s; (s/r): Infinity
2024-01-19T19:36:37,991  INFO AbstractQNetsimEngine:366 SIMULATION (QNetsimEngine) AT 18:00:00 : #links=13 #nodes=24
2024-01-19T19:36:37,991  INFO QSim:566 SIMULATION (NEW QSim) AT 18:00:00 : #Veh=359 lost=0 simT=44160.0s realT=1s; (s/r): 44160.0
2024-01-19T19:36:38,060  INFO AbstractQNetsimEngine:366 SIMULATION (QNetsimEngine) AT 19:00:00 : #links=14 #nodes=22
2024-01-19T19:36:38,060  INFO QSim:566 SIMULATION (NEW QSim) AT 19:00:00 : #Veh=291 lost=0 simT=47760.0s realT=1s; (s/r): 47760.0
2024-01-19T19:36:38,131  INFO AbstractQNetsimEngine:366 SIMULATION (QNetsimEngine) AT 20:00:00 : #links=19 #nodes=16
2024-01-19T19:36:38,132  INFO QSim:566 SIMULATION (NEW QSim) AT 20:00:00 : #Veh=223 lost=0 simT=51360.0s realT=1s; (s/r): 51360.0
2024-01-19T19:36:38,201  INFO AbstractQNetsimEngine:366 SIMULATION (QNetsimEngine) AT 21:00:00 : #links=15 #nodes=11
2024-01-19T19:36:38,201  INFO QSim:566 SIMULATION (NEW QSim) AT 21:00:00 : #Veh=168 lost=0 simT=54960.0s realT=1s; (s/r): 54960.0
2024-01-19T19:36:38,265  INFO AbstractQNetsimEngine:366 SIMULATION (QNetsimEngine) AT 22:00:00 : #links=12 #nodes=13
2024-01-19T19:36:38,266  INFO QSim:566 SIMULATION (NEW QSim) AT 22:00:00 : #Veh=125 lost=0 simT=58560.0s realT=1s; (s/r): 58560.0
2024-01-19T19:36:38,390  INFO EventsManagerImpl:115  event # 1048576
2024-01-19T19:36:38,395  INFO AbstractQNetsimEngine:366 SIMULATION (QNetsimEngine) AT 23:00:00 : #links=9 #nodes=13
2024-01-19T19:36:38,396  INFO QSim:566 SIMULATION (NEW QSim) AT 23:00:00 : #Veh=87 lost=0 simT=62160.0s realT=1s; (s/r): 62160.0
2024-01-19T19:36:38,481  INFO AbstractQNetsimEngine:366 SIMULATION (QNetsimEngine) AT 24:00:00 : #links=8 #nodes=11
2024-01-19T19:36:38,481  INFO QSim:566 SIMULATION (NEW QSim) AT 24:00:00 : #Veh=51 lost=0 simT=65760.0s realT=1s; (s/r): 65760.0
2024-01-19T19:36:38,563  INFO AbstractQNetsimEngine:366 SIMULATION (QNetsimEngine) AT 25:00:00 : #links=10 #nodes=7
2024-01-19T19:36:38,564  INFO QSim:566 SIMULATION (NEW QSim) AT 25:00:00 : #Veh=20 lost=0 simT=69360.0s realT=1s; (s/r): 69360.0
2024-01-19T19:36:38,633  INFO AbstractController$9:235 ### ITERATION 10 fires after mobsim event
2024-01-19T19:36:38,633  INFO Gbl:192 Thread performance: Thread=class org.matsim.core.events.SimStepParallelEventsManagerImpl$ProcessEventsRunnable0  cpu-time=0.415959187sec
2024-01-19T19:36:38,633  INFO ControlerListenerManagerImpl:249 calling notifyAfterMobsim on org.matsim.analysis.LegTimesControlerListener
2024-01-19T19:36:38,633  INFO LegTimesControlerListener:51 [10] average trip (probably: leg) duration is: 341 seconds = 00:05:41
2024-01-19T19:36:38,633  INFO ControlerListenerManagerImpl:249 calling notifyAfterMobsim on org.matsim.core.events.MobsimScopeEventHandling
2024-01-19T19:36:38,633  INFO ControlerListenerManagerImpl:249 calling notifyAfterMobsim on org.matsim.core.scoring.EventsToActivities$1
2024-01-19T19:36:38,634  INFO ControlerListenerManagerImpl:252 [it.10] all ControlerAfterMobsimListeners called.
2024-01-19T19:36:38,634  INFO AbstractController$4:160 ### ITERATION 10 fires scoring event
2024-01-19T19:36:38,634  INFO ControlerListenerManagerImpl:184 calling notifyScoring on org.matsim.core.scoring.PlansScoringImpl
2024-01-19T19:36:38,634  INFO NewScoreAssignerImpl:58 it: 10 msaStart: null
2024-01-19T19:36:38,634  INFO ControlerListenerManagerImpl:195 [it.10] all ControlerScoringListeners called.
2024-01-19T19:36:38,634  INFO AbstractController$5:168 ### ITERATION 10 fires iteration end event
2024-01-19T19:36:38,634  INFO ControlerListenerManagerImpl:161 calling notifyIterationEnds on org.matsim.core.controler.corelisteners.EventsHandlingImpl
2024-01-19T19:36:38,635  INFO EventsManagerImpl:159 removing Event-Handler: org.matsim.core.events.algorithms.EventWriterXML
2024-01-19T19:36:38,635  INFO EventsManagerImpl:159 removing Event-Handler: org.matsim.core.events.algorithms.EventWriterXML
2024-01-19T19:36:38,635  INFO ControlerListenerManagerImpl:161 calling notifyIterationEnds on org.matsim.core.scoring.PlansScoringImpl
2024-01-19T19:36:38,636  INFO ControlerListenerManagerImpl:168 calling notifyIterationEnds on org.matsim.counts.CountsControlerListener
2024-01-19T19:36:38,643  INFO CountSimComparisonTableWriter:94 Writing CountsSimComparison to ./../output/ITERS/it.10/10.countscompare.txt
2024-01-19T19:36:38,643  INFO CountSimComparisonTableWriter:135 Writing 'average weekday traffic volume' to ./../output/ITERS/it.10/10.countscompareAWTV.txt
2024-01-19T19:36:38,644  INFO ControlerListenerManagerImpl:168 calling notifyIterationEnds on org.matsim.analysis.ModeStatsControlerListener
2024-01-19T19:36:38,644  INFO ModeStatsControlerListener:145 Mode shares over all 3.0 trips found. MainModeIdentifier: class org.matsim.core.router.RoutingModeMainModeIdentifier
2024-01-19T19:36:38,644  INFO ModeStatsControlerListener:152 -- mode share of mode car = 1.0
2024-01-19T19:36:38,644  INFO ModeStatsControlerListener:152 -- mode share of mode subway = 0.0
2024-01-19T19:36:38,690  INFO ControlerListenerManagerImpl:168 calling notifyIterationEnds on org.matsim.analysis.ScoreStatsControlerListener
2024-01-19T19:36:38,690  INFO ScoreStatsControlerListener:182 -- avg. score of the executed plan of each agent: 57.04392107630676
2024-01-19T19:36:38,690  INFO ScoreStatsControlerListener:183 -- avg. score of the worst plan of each agent: -63.33738928803504
2024-01-19T19:36:38,690  INFO ScoreStatsControlerListener:184 -- avg. of the avg. plan score per agent: 16.786432606199423
2024-01-19T19:36:38,690  INFO ScoreStatsControlerListener:185 -- avg. score of the best plan of each agent: 57.04392107630676
2024-01-19T19:36:38,708  INFO ControlerListenerManagerImpl:168 calling notifyIterationEnds on org.matsim.analysis.IterationTravelStatsControlerListener
2024-01-19T19:36:38,708  INFO TravelDistanceStats:144 -- average leg distance per plan (executed plans only): 5527.593242431492 meters
2024-01-19T19:36:38,708  INFO TravelDistanceStats:145 average leg distance per Person (executed plans only): 16582.779727294477 meters (statistic on all 3 legs which have a finite distance)
2024-01-19T19:36:38,708  INFO TravelDistanceStats:146 -- average trip distance per plan (executed plans only): 5527.593242431492 meters
2024-01-19T19:36:38,708  INFO TravelDistanceStats:147 average trip distance per Person (executed plans only): 16582.779727294477 meters (statistic on all 3 trips which have a finite distance)
2024-01-19T19:36:38,708  INFO TravelDistanceStats:148 (TravelDistanceStats takes an average over all legs where the simulation reports travelled (network) distances
2024-01-19T19:36:38,708  INFO TravelDistanceStats:149 (and teleported legs whose route contains a distance.)
2024-01-19T19:36:38,806  INFO ControlerListenerManagerImpl:168 calling notifyIterationEnds on org.matsim.analysis.LegHistogramListener
2024-01-19T19:36:38,806  INFO LegHistogramListener:73 number of legs:	3	100%
2024-01-19T19:36:38,806  INFO LegHistogramListener:80 number of car legs:	3	100.0%
2024-01-19T19:36:38,855  INFO ControlerListenerManagerImpl:168 calling notifyIterationEnds on org.matsim.analysis.LinkStatsControlerListener
2024-01-19T19:36:38,855  INFO ControlerListenerManagerImpl:172 [it.10] all ControlerIterationEndsListeners called.
2024-01-19T19:36:38,893  INFO AbstractController:182 ### ITERATION 10 ENDS
2024-01-19T19:36:38,893  INFO AbstractController:183 ###################################################
2024-01-19T19:36:38,893  INFO MatsimRuntimeModifications:80 S H U T D O W N   ---   start shutdown.
2024-01-19T19:36:38,893  INFO ControlerListenerManagerImpl:122 calling notifyShutdown on org.matsim.core.controler.corelisteners.EventsHandlingImpl
2024-01-19T19:36:38,893  INFO ControlerListenerManagerImpl:122 calling notifyShutdown on org.matsim.core.controler.corelisteners.DumpDataAtEndImpl
2024-01-19T19:36:38,919  INFO Counter:70 [PopulationWriter] dumped person # 1
2024-01-19T19:36:38,919  INFO PopulationWriter:145 Population written to: ./../output/output_plans.xml.gz
2024-01-19T19:36:38,919  INFO Counter:75 [PopulationWriter] dumped person # 1
2024-01-19T19:36:38,920  INFO NetworkWriter:70 Writing network to file: ./../output/output_network.xml.gz...
2024-01-19T19:36:39,417  INFO NetworkWriter:73 done.
2024-01-19T19:36:39,423  INFO Config:602 setting context to [file:/home/iohan/Documentos/FEUP/MAMS/OpenOPorto/input/]
2024-01-19T19:36:39,425  INFO Config:602 setting context to [file:/home/iohan/Documentos/FEUP/MAMS/OpenOPorto/input/]
2024-01-19T19:36:39,428  INFO Config:602 setting context to [file:/home/iohan/Documentos/FEUP/MAMS/OpenOPorto/input/]
2024-01-19T19:36:39,431  INFO Config:602 setting context to [file:/home/iohan/Documentos/FEUP/MAMS/OpenOPorto/input/]
2024-01-19T19:36:39,434  INFO Config:602 setting context to [file:/home/iohan/Documentos/FEUP/MAMS/OpenOPorto/input/]
2024-01-19T19:36:39,447  INFO Config:602 setting context to [file:/home/iohan/Documentos/FEUP/MAMS/OpenOPorto/input/]
2024-01-19T19:36:39,449  INFO Config:602 setting context to [file:/home/iohan/Documentos/FEUP/MAMS/OpenOPorto/input/]
2024-01-19T19:36:39,452  INFO Config:602 setting context to [file:/home/iohan/Documentos/FEUP/MAMS/OpenOPorto/input/]
2024-01-19T19:36:39,455  INFO Config:602 setting context to [file:/home/iohan/Documentos/FEUP/MAMS/OpenOPorto/input/]
2024-01-19T19:36:39,494  INFO Config:602 setting context to [file:/home/iohan/Documentos/FEUP/MAMS/OpenOPorto/input/]
2024-01-19T19:36:39,496  INFO Config:602 setting context to [file:/home/iohan/Documentos/FEUP/MAMS/OpenOPorto/input/]
2024-01-19T19:36:39,497  INFO Config:602 setting context to [file:/home/iohan/Documentos/FEUP/MAMS/OpenOPorto/input/]
2024-01-19T19:36:39,499  INFO Config:602 setting context to [file:/home/iohan/Documentos/FEUP/MAMS/OpenOPorto/input/]
2024-01-19T19:36:39,503  INFO Config:602 setting context to [file:/home/iohan/Documentos/FEUP/MAMS/OpenOPorto/input/]
2024-01-19T19:36:39,516  INFO Config:602 setting context to [file:/home/iohan/Documentos/FEUP/MAMS/OpenOPorto/input/]
2024-01-19T19:36:39,517  INFO Config:602 setting context to [file:/home/iohan/Documentos/FEUP/MAMS/OpenOPorto/input/]
2024-01-19T19:36:39,524  INFO Config:602 setting context to [file:/home/iohan/Documentos/FEUP/MAMS/OpenOPorto/input/]
2024-01-19T19:36:39,526  INFO Config:602 setting context to [file:/home/iohan/Documentos/FEUP/MAMS/OpenOPorto/input/]
2024-01-19T19:36:39,536  INFO Config:602 setting context to [file:/home/iohan/Documentos/FEUP/MAMS/OpenOPorto/input/]
2024-01-19T19:36:39,537  INFO Config:602 setting context to [file:/home/iohan/Documentos/FEUP/MAMS/OpenOPorto/input/]
2024-01-19T19:36:39,541  INFO Config:602 setting context to [file:/home/iohan/Documentos/FEUP/MAMS/OpenOPorto/input/]
2024-01-19T19:36:39,544  INFO Config:602 setting context to [file:/home/iohan/Documentos/FEUP/MAMS/OpenOPorto/input/]
2024-01-19T19:36:39,547  INFO Config:602 setting context to [file:/home/iohan/Documentos/FEUP/MAMS/OpenOPorto/input/]
2024-01-19T19:36:39,550  INFO Config:602 setting context to [file:/home/iohan/Documentos/FEUP/MAMS/OpenOPorto/input/]
2024-01-19T19:36:39,552  INFO Config:602 setting context to [file:/home/iohan/Documentos/FEUP/MAMS/OpenOPorto/input/]
2024-01-19T19:36:39,555  INFO Config:602 setting context to [file:/home/iohan/Documentos/FEUP/MAMS/OpenOPorto/input/]
2024-01-19T19:36:39,557  INFO Config:602 setting context to [file:/home/iohan/Documentos/FEUP/MAMS/OpenOPorto/input/]
2024-01-19T19:36:39,570  INFO TransitScheduleWriter:88 about to write transit schedule to: ./../output/output_transitSchedule.xml.gz
2024-01-19T19:36:39,590  INFO MatsimVehicleWriter:55 about to write vehicles to: ./../output/output_transitVehicles.xml.gz
2024-01-19T19:36:39,590  INFO VehicleWriterV2:64 about to write vehicles to: ./../output/output_transitVehicles.xml.gz
2024-01-19T19:36:39,596  INFO MatsimVehicleWriter:55 about to write vehicles to: ./../output/output_vehicles.xml.gz
2024-01-19T19:36:39,596  INFO VehicleWriterV2:64 about to write vehicles to: ./../output/output_vehicles.xml.gz
2024-01-19T19:36:39,596  INFO MatsimVehicleWriter:55 about to write vehicles to: ./../output/output_allVehicles.xml.gz
2024-01-19T19:36:39,596  INFO VehicleWriterV2:64 about to write vehicles to: ./../output/output_allVehicles.xml.gz
2024-01-19T19:36:39,602  INFO HouseholdsWriterV10:67 about to write  households to: ./../output/output_households.xml.gz
2024-01-19T19:36:39,603  INFO Counter:75 [HouseholdsWriter] wrote household # 0
2024-01-19T19:36:39,612  INFO ControlerListenerManagerImpl:127 calling notifyShutdown on org.matsim.analysis.ScoreStatsControlerListener
2024-01-19T19:36:39,612  INFO ControlerListenerManagerImpl:127 calling notifyShutdown on org.matsim.analysis.IterationTravelStatsControlerListener
2024-01-19T19:36:39,612  INFO IterationTravelStatsControlerListener:109 Writing all Person and Attributes to personscsv
2024-01-19T19:36:39,613  INFO IterationTravelStatsControlerListener:153 ...done
2024-01-19T19:36:39,614  INFO ControlerListenerManagerImpl:130 all ControlerShutdownListeners called.
2024-01-19T19:36:39,614  INFO MatsimRuntimeModifications:103 S H U T D O W N   ---   shutdown completed.
2024-01-19T19:36:39,614  INFO OutputDirectoryLogging:171 closing the logfile, i.e. messages sent to the logger after this message are not written to the logfile.
